data_image0
_chemical_formula_structural       Zr18O96C77H64C7
_chemical_formula_sum              "Zr18 O96 C84 H64"
_cell_length_a       20.7004
_cell_length_b       20.7004
_cell_length_c       20.7004
_cell_angle_alpha    90
_cell_angle_beta     90
_cell_angle_gamma    90

_space_group_name_H-M_alt    "P 1"
_space_group_IT_number       1

loop_
  _space_group_symop_operation_xyz
  'x, y, z'

loop_
  _atom_site_type_symbol
  _atom_site_label
  _atom_site_symmetry_multiplicity
  _atom_site_fract_x
  _atom_site_fract_y
  _atom_site_fract_z
  _atom_site_occupancy
  Zr  Zr1       1.0  0.11990  0.00000  0.00000  1.0000
  Zr  Zr2       1.0  0.88014  0.00000  0.00000  1.0000
  Zr  Zr3       1.0  0.00000  0.11990  0.00000  1.0000
  Zr  Zr4       1.0  0.00000  0.88014  0.00000  1.0000
  Zr  Zr5       1.0  0.00000  0.00000  0.11990  1.0000
  Zr  Zr6       1.0  0.00000  0.00000  0.88014  1.0000
  Zr  Zr7       1.0  0.61990  0.00000  0.50000  1.0000
  Zr  Zr8       1.0  0.38010  0.00000  0.50000  1.0000
  Zr  Zr9       1.0  0.50000  0.11990  0.50000  1.0000
  Zr  Zr10      1.0  0.50000  0.88014  0.50000  1.0000
  Zr  Zr11      1.0  0.50000  0.00000  0.61990  1.0000
  Zr  Zr12      1.0  0.50000  0.00000  0.38010  1.0000
  Zr  Zr13      1.0  0.61990  0.50000  0.00000  1.0000
  Zr  Zr14      1.0  0.38010  0.50000  0.00000  1.0000
  Zr  Zr15      1.0  0.50000  0.61990  0.00000  1.0000
  Zr  Zr16      1.0  0.50000  0.38010  0.00000  1.0000
  Zr  Zr17      1.0  0.50000  0.50000  0.11990  1.0000
  Zr  Zr18      1.0  0.50000  0.50000  0.88014  1.0000
  O   O1        1.0  0.17048  0.00000  0.09531  1.0000
  O   O2        1.0  0.82957  0.00000  0.09531  1.0000
  O   O3        1.0  0.82957  0.00000  0.90473  1.0000
  O   O4        1.0  0.17048  0.00000  0.90473  1.0000
  O   O5        1.0  0.09531  0.17048  0.00000  1.0000
  O   O6        1.0  0.09531  0.82957  0.00000  1.0000
  O   O7        1.0  0.90473  0.82957  0.00000  1.0000
  O   O8        1.0  0.90473  0.17048  0.00000  1.0000
  O   O9        1.0  0.00000  0.09531  0.17048  1.0000
  O   O10       1.0  0.00000  0.09531  0.82957  1.0000
  O   O11       1.0  0.00000  0.90473  0.82957  1.0000
  O   O12       1.0  0.00000  0.90473  0.17048  1.0000
  O   O13       1.0  0.00000  0.17048  0.90473  1.0000
  O   O14       1.0  0.00000  0.82957  0.90473  1.0000
  O   O15       1.0  0.00000  0.82957  0.09531  1.0000
  O   O16       1.0  0.00000  0.17048  0.09531  1.0000
  O   O17       1.0  0.17048  0.09531  0.00000  1.0000
  O   O18       1.0  0.82957  0.09531  0.00000  1.0000
  O   O19       1.0  0.82957  0.90473  0.00000  1.0000
  O   O20       1.0  0.17048  0.90473  0.00000  1.0000
  O   O21       1.0  0.09531  0.00000  0.82957  1.0000
  O   O22       1.0  0.09531  0.00000  0.17048  1.0000
  O   O23       1.0  0.90473  0.00000  0.17048  1.0000
  O   O24       1.0  0.90473  0.00000  0.82957  1.0000
  O   O25       1.0  0.67048  0.00000  0.59531  1.0000
  O   O26       1.0  0.32952  0.00000  0.59531  1.0000
  O   O27       1.0  0.32952  0.00000  0.40469  1.0000
  O   O28       1.0  0.67048  0.00000  0.40469  1.0000
  O   O29       1.0  0.59531  0.17048  0.50000  1.0000
  O   O30       1.0  0.59531  0.82957  0.50000  1.0000
  O   O31       1.0  0.40469  0.82957  0.50000  1.0000
  O   O32       1.0  0.40469  0.17048  0.50000  1.0000
  O   O33       1.0  0.50000  0.09531  0.67048  1.0000
  O   O34       1.0  0.50000  0.09531  0.32952  1.0000
  O   O35       1.0  0.50000  0.90473  0.32952  1.0000
  O   O36       1.0  0.50000  0.90473  0.67048  1.0000
  O   O37       1.0  0.50000  0.17048  0.40469  1.0000
  O   O38       1.0  0.50000  0.82957  0.40469  1.0000
  O   O39       1.0  0.50000  0.82957  0.59531  1.0000
  O   O40       1.0  0.50000  0.17048  0.59531  1.0000
  O   O41       1.0  0.67048  0.09531  0.50000  1.0000
  O   O42       1.0  0.32952  0.09531  0.50000  1.0000
  O   O43       1.0  0.32952  0.90473  0.50000  1.0000
  O   O44       1.0  0.67048  0.90473  0.50000  1.0000
  O   O45       1.0  0.59531  0.00000  0.32952  1.0000
  O   O46       1.0  0.59531  0.00000  0.67048  1.0000
  O   O47       1.0  0.40469  0.00000  0.67048  1.0000
  O   O48       1.0  0.40469  0.00000  0.32952  1.0000
  O   O49       1.0  0.67048  0.50000  0.09531  1.0000
  O   O50       1.0  0.32952  0.50000  0.09531  1.0000
  O   O51       1.0  0.32952  0.50000  0.90473  1.0000
  O   O52       1.0  0.67048  0.50000  0.90473  1.0000
  O   O53       1.0  0.59531  0.67048  0.00000  1.0000
  O   O54       1.0  0.59531  0.32952  0.00000  1.0000
  O   O55       1.0  0.40469  0.32952  0.00000  1.0000
  O   O56       1.0  0.40469  0.67048  0.00000  1.0000
  O   O57       1.0  0.50000  0.59531  0.17048  1.0000
  O   O58       1.0  0.50000  0.59531  0.82957  1.0000
  O   O59       1.0  0.50000  0.40469  0.82957  1.0000
  O   O60       1.0  0.50000  0.40469  0.17048  1.0000
  O   O61       1.0  0.50000  0.67048  0.90473  1.0000
  O   O62       1.0  0.50000  0.32952  0.90473  1.0000
  O   O63       1.0  0.50000  0.32952  0.09531  1.0000
  O   O64       1.0  0.50000  0.67048  0.09531  1.0000
  O   O65       1.0  0.67048  0.59531  0.00000  1.0000
  O   O66       1.0  0.32952  0.59531  0.00000  1.0000
  O   O67       1.0  0.32952  0.40469  0.00000  1.0000
  O   O68       1.0  0.67048  0.40469  0.00000  1.0000
  O   O69       1.0  0.59531  0.50000  0.82957  1.0000
  O   O70       1.0  0.59531  0.50000  0.17048  1.0000
  O   O71       1.0  0.40469  0.50000  0.17048  1.0000
  O   O72       1.0  0.40469  0.50000  0.82957  1.0000
  O   O73       1.0  0.05609  0.94391  0.94391  1.0000
  O   O74       1.0  0.94391  0.05609  0.94391  1.0000
  O   O75       1.0  0.94391  0.94391  0.05609  1.0000
  O   O76       1.0  0.05609  0.05609  0.05609  1.0000
  O   O77       1.0  0.94391  0.05609  0.05609  1.0000
  O   O78       1.0  0.05609  0.94391  0.05609  1.0000
  O   O79       1.0  0.94391  0.94391  0.94391  1.0000
  O   O80       1.0  0.05609  0.05609  0.94391  1.0000
  O   O81       1.0  0.55609  0.94391  0.44391  1.0000
  O   O82       1.0  0.44391  0.05609  0.44391  1.0000
  O   O83       1.0  0.44391  0.94391  0.55609  1.0000
  O   O84       1.0  0.55609  0.05609  0.55609  1.0000
  O   O85       1.0  0.44391  0.05609  0.55609  1.0000
  O   O86       1.0  0.55609  0.94391  0.55609  1.0000
  O   O87       1.0  0.44391  0.94391  0.44391  1.0000
  O   O88       1.0  0.55609  0.05609  0.44391  1.0000
  O   O89       1.0  0.55609  0.44391  0.94391  1.0000
  O   O90       1.0  0.44391  0.55609  0.94391  1.0000
  O   O91       1.0  0.44391  0.44391  0.05609  1.0000
  O   O92       1.0  0.55609  0.55609  0.05609  1.0000
  O   O93       1.0  0.44391  0.55609  0.05609  1.0000
  O   O94       1.0  0.55609  0.44391  0.05609  1.0000
  O   O95       1.0  0.44391  0.44391  0.94391  1.0000
  O   O96       1.0  0.55609  0.55609  0.94391  1.0000
  C   C1        1.0  0.15362  0.00000  0.84643  1.0000
  C   C2        1.0  0.84643  0.00000  0.84643  1.0000
  C   C3        1.0  0.84643  0.00000  0.15362  1.0000
  C   C4        1.0  0.15362  0.00000  0.15362  1.0000
  C   C5        1.0  0.84643  0.15362  0.00000  1.0000
  C   C6        1.0  0.84643  0.84643  0.00000  1.0000
  C   C7        1.0  0.15362  0.84643  0.00000  1.0000
  C   C8        1.0  0.15362  0.15362  0.00000  1.0000
  C   C9        1.0  0.00000  0.84643  0.15362  1.0000
  C   C10       1.0  0.00000  0.84643  0.84643  1.0000
  C   C11       1.0  0.00000  0.15362  0.84643  1.0000
  C   C12       1.0  0.00000  0.15362  0.15362  1.0000
  C   C13       1.0  0.65362  0.00000  0.34643  1.0000
  C   C14       1.0  0.34643  0.00000  0.34643  1.0000
  C   C15       1.0  0.34643  0.00000  0.65362  1.0000
  C   C16       1.0  0.65362  0.00000  0.65362  1.0000
  C   C17       1.0  0.34643  0.15362  0.50000  1.0000
  C   C18       1.0  0.34643  0.84643  0.50000  1.0000
  C   C19       1.0  0.65362  0.84643  0.50000  1.0000
  C   C20       1.0  0.65362  0.15362  0.50000  1.0000
  C   C21       1.0  0.50000  0.84643  0.65362  1.0000
  C   C22       1.0  0.50000  0.84643  0.34643  1.0000
  C   C23       1.0  0.50000  0.15362  0.34643  1.0000
  C   C24       1.0  0.50000  0.15362  0.65362  1.0000
  C   C25       1.0  0.65362  0.50000  0.84643  1.0000
  C   C26       1.0  0.34643  0.50000  0.84643  1.0000
  C   C27       1.0  0.34643  0.50000  0.15362  1.0000
  C   C28       1.0  0.65362  0.50000  0.15362  1.0000
  C   C29       1.0  0.34643  0.65362  0.00000  1.0000
  C   C30       1.0  0.34643  0.34643  0.00000  1.0000
  C   C31       1.0  0.65362  0.34643  0.00000  1.0000
  C   C32       1.0  0.65362  0.65362  0.00000  1.0000
  C   C33       1.0  0.50000  0.34643  0.15362  1.0000
  C   C34       1.0  0.50000  0.34643  0.84643  1.0000
  C   C35       1.0  0.50000  0.65362  0.84643  1.0000
  C   C36       1.0  0.50000  0.65362  0.15362  1.0000
  C   C37       1.0  0.20502  0.00000  0.79502  1.0000
  C   C38       1.0  0.20502  0.20502  0.00000  1.0000
  C   C39       1.0  0.20502  0.79502  0.00000  1.0000
  C   C40       1.0  0.79502  0.20502  0.00000  1.0000
  C   C41       1.0  0.70502  0.00000  0.70502  1.0000
  C   C42       1.0  0.29502  0.00000  0.29502  1.0000
  C   C43       1.0  0.70502  0.00000  0.29502  1.0000
  C   C44       1.0  0.70502  0.70502  0.00000  1.0000
  C   C45       1.0  0.70502  0.29502  0.00000  1.0000
  C   C46       1.0  0.26749  0.00000  0.18440  1.0000
  C   C47       1.0  0.73251  0.00000  0.18440  1.0000
  C   C48       1.0  0.73251  0.00000  0.81560  1.0000
  C   C49       1.0  0.26749  0.00000  0.81560  1.0000
  C   C50       1.0  0.18440  0.26749  0.00000  1.0000
  C   C51       1.0  0.18440  0.73251  0.00000  1.0000
  C   C52       1.0  0.81560  0.73251  0.00000  1.0000
  C   C53       1.0  0.81560  0.26749  0.00000  1.0000
  C   C54       1.0  0.26749  0.18440  0.00000  1.0000
  C   C55       1.0  0.73251  0.18440  0.00000  1.0000
  C   C56       1.0  0.73251  0.81560  0.00000  1.0000
  C   C57       1.0  0.26749  0.81560  0.00000  1.0000
  C   C58       1.0  0.18440  0.00000  0.73251  1.0000
  C   C59       1.0  0.18440  0.00000  0.26749  1.0000
  C   C60       1.0  0.81560  0.00000  0.26749  1.0000
  C   C61       1.0  0.81560  0.00000  0.73251  1.0000
  C   C62       1.0  0.76754  0.00000  0.68440  1.0000
  C   C63       1.0  0.23251  0.00000  0.68440  1.0000
  C   C64       1.0  0.23251  0.00000  0.31560  1.0000
  C   C65       1.0  0.76754  0.00000  0.31560  1.0000
  C   C66       1.0  0.68440  0.00000  0.23251  1.0000
  C   C67       1.0  0.68440  0.00000  0.76754  1.0000
  C   C68       1.0  0.31560  0.00000  0.76754  1.0000
  C   C69       1.0  0.31560  0.00000  0.23251  1.0000
  C   C70       1.0  0.68440  0.76754  0.00000  1.0000
  C   C71       1.0  0.68440  0.23251  0.00000  1.0000
  C   C72       1.0  0.31560  0.23251  0.00000  1.0000
  C   C73       1.0  0.31560  0.76754  0.00000  1.0000
  C   C74       1.0  0.76754  0.68440  0.00000  1.0000
  C   C75       1.0  0.23251  0.68440  0.00000  1.0000
  C   C76       1.0  0.23251  0.31560  0.00000  1.0000
  C   C77       1.0  0.76754  0.31560  0.00000  1.0000
  H   H1        1.0  0.27903  0.00000  0.13589  1.0000
  H   H2        1.0  0.72097  0.00000  0.13589  1.0000
  H   H3        1.0  0.72097  0.00000  0.86411  1.0000
  H   H4        1.0  0.27903  0.00000  0.86411  1.0000
  H   H5        1.0  0.13589  0.27903  0.00000  1.0000
  H   H6        1.0  0.13589  0.72097  0.00000  1.0000
  H   H7        1.0  0.86411  0.72097  0.00000  1.0000
  H   H8        1.0  0.86411  0.27903  0.00000  1.0000
  H   H9        1.0  0.27903  0.13589  0.00000  1.0000
  H   H10       1.0  0.72097  0.13589  0.00000  1.0000
  H   H11       1.0  0.72097  0.86411  0.00000  1.0000
  H   H12       1.0  0.27903  0.86411  0.00000  1.0000
  H   H13       1.0  0.13589  0.00000  0.72097  1.0000
  H   H14       1.0  0.13589  0.00000  0.27903  1.0000
  H   H15       1.0  0.86411  0.00000  0.27903  1.0000
  H   H16       1.0  0.86411  0.00000  0.72097  1.0000
  H   H17       1.0  0.77903  0.00000  0.63589  1.0000
  H   H18       1.0  0.22097  0.00000  0.63589  1.0000
  H   H19       1.0  0.22097  0.00000  0.36411  1.0000
  H   H20       1.0  0.77903  0.00000  0.36411  1.0000
  H   H21       1.0  0.63589  0.00000  0.22097  1.0000
  H   H22       1.0  0.63589  0.00000  0.77903  1.0000
  H   H23       1.0  0.36411  0.00000  0.77903  1.0000
  H   H24       1.0  0.36411  0.00000  0.22097  1.0000
  H   H25       1.0  0.63589  0.77903  0.00000  1.0000
  H   H26       1.0  0.63589  0.22097  0.00000  1.0000
  H   H27       1.0  0.36411  0.22097  0.00000  1.0000
  H   H28       1.0  0.36411  0.77903  0.00000  1.0000
  H   H29       1.0  0.77903  0.63589  0.00000  1.0000
  H   H30       1.0  0.22097  0.63589  0.00000  1.0000
  H   H31       1.0  0.22097  0.36411  0.00000  1.0000
  H   H32       1.0  0.77903  0.36411  0.00000  1.0000
  H   H33       1.0  0.00000  0.19150  0.19151  1.0000
  H   H34       1.0  0.00000  0.19150  0.80852  1.0000
  H   H35       1.0  0.00000  0.80854  0.80854  1.0000
  H   H36       1.0  0.00000  0.80853  0.19151  1.0000
  H   H37       1.0  0.69151  0.19150  0.49998  1.0000
  H   H38       1.0  0.69150  0.80853  0.49998  1.0000
  H   H39       1.0  0.30850  0.80853  0.49998  1.0000
  H   H40       1.0  0.30849  0.19150  0.49998  1.0000
  H   H41       1.0  0.69150  0.50000  0.19151  1.0000
  H   H42       1.0  0.30850  0.50000  0.19151  1.0000
  H   H43       1.0  0.30850  0.50000  0.80853  1.0000
  H   H44       1.0  0.69150  0.50000  0.80853  1.0000
  H   H45       1.0  0.91946  0.92030  0.08012  1.0000
  H   H46       1.0  0.07911  0.08412  0.08075  1.0000
  H   H47       1.0  0.91819  0.08239  0.92184  1.0000
  H   H48       1.0  0.08438  0.91891  0.91616  1.0000
  H   H49       1.0  0.41988  0.92030  0.41946  1.0000
  H   H50       1.0  0.41924  0.08412  0.57911  1.0000
  H   H51       1.0  0.57816  0.08239  0.41820  1.0000
  H   H52       1.0  0.58383  0.91891  0.58439  1.0000
  H   H53       1.0  0.57970  0.41946  0.08012  1.0000
  H   H54       1.0  0.41588  0.57910  0.08075  1.0000
  H   H55       1.0  0.41761  0.41818  0.92185  1.0000
  H   H56       1.0  0.58109  0.58437  0.91616  1.0000
  H   H57       1.0  0.50000  0.30851  0.19150  1.0000
  H   H58       1.0  0.50000  0.19150  0.30850  1.0000
  H   H59       1.0  0.50000  0.80852  0.69150  1.0000
  H   H60       1.0  0.50000  0.69151  0.80850  1.0000
  H   H61       1.0  0.50000  0.30850  0.80852  1.0000
  H   H62       1.0  0.50000  0.19150  0.69151  1.0000
  H   H63       1.0  0.50000  0.80852  0.30850  1.0000
  H   H64       1.0  0.50000  0.69151  0.19150  1.0000
  C   C78       1.0  0.20499  0.00000  0.20500  1.0000
  C   C79       1.0  0.79502  0.79499  0.00000  1.0000
  C   C80       1.0  0.29500  0.70499  0.00000  1.0000
  C   C81       1.0  0.79501  0.00000  0.20500  1.0000
  C   C82       1.0  0.29500  0.00000  0.70499  1.0000
  C   C83       1.0  0.79502  0.00000  0.79499  1.0000
  C   C84       1.0  0.29500  0.29501  0.00000  1.0000
