data_image0
_chemical_formula_structural       Zr24O128C162H76Zr24O128C162H76Zr24O128C150H68Zr24O128C168H80Zr24O128C156H72Zr24O128C150H68Zr24O128C150H68Zr24O128C168H80Zr24O128C156H72Zr24O128C168H80Zr24O128C168H80Zr24O128C174H84Zr24O128C156H72Zr24O128C174H84Zr24O128C162H76Zr24O128C174H84Zr24O128C168H80Zr24O128C168H80Zr24O128C174H84Zr24O128C174H84Zr24O128C180H88Zr24O128C156H72Zr24O128C186H92Zr24O128C144H64Zr24O128C150H68Zr24O128C150H68Zr24O128C156H764
_chemical_formula_sum              "Zr648 O3456 C4404 H2764"
_cell_length_a       62.1012
_cell_length_b       62.1012
_cell_length_c       62.1012
_cell_angle_alpha    90
_cell_angle_beta     90
_cell_angle_gamma    90

_space_group_name_H-M_alt    "P 1"
_space_group_IT_number       1

loop_
  _space_group_symop_operation_xyz
  'x, y, z'

loop_
  _atom_site_type_symbol
  _atom_site_label
  _atom_site_symmetry_multiplicity
  _atom_site_fract_x
  _atom_site_fract_y
  _atom_site_fract_z
  _atom_site_occupancy
  Zr  Zr1       1.0  0.03997  0.00000  0.00000  1.0000
  Zr  Zr2       1.0  0.29338  0.00000  0.00000  1.0000
  Zr  Zr3       1.0  0.00000  0.03997  0.00000  1.0000
  Zr  Zr4       1.0  0.00000  0.29338  0.00000  1.0000
  Zr  Zr5       1.0  0.00000  0.00000  0.03997  1.0000
  Zr  Zr6       1.0  0.00000  0.00000  0.29338  1.0000
  Zr  Zr7       1.0  0.03997  0.16667  0.16667  1.0000
  Zr  Zr8       1.0  0.29338  0.16667  0.16667  1.0000
  Zr  Zr9       1.0  0.00000  0.20663  0.16667  1.0000
  Zr  Zr10      1.0  0.00000  0.12670  0.16667  1.0000
  Zr  Zr11      1.0  0.00000  0.16667  0.20663  1.0000
  Zr  Zr12      1.0  0.00000  0.16667  0.12670  1.0000
  Zr  Zr13      1.0  0.20663  0.00000  0.16667  1.0000
  Zr  Zr14      1.0  0.12670  0.00000  0.16667  1.0000
  Zr  Zr15      1.0  0.16667  0.03997  0.16667  1.0000
  Zr  Zr16      1.0  0.16667  0.29338  0.16667  1.0000
  Zr  Zr17      1.0  0.16667  0.00000  0.20663  1.0000
  Zr  Zr18      1.0  0.16667  0.00000  0.12670  1.0000
  Zr  Zr19      1.0  0.20663  0.16667  0.00000  1.0000
  Zr  Zr20      1.0  0.12670  0.16667  0.00000  1.0000
  Zr  Zr21      1.0  0.16667  0.20663  0.00000  1.0000
  Zr  Zr22      1.0  0.16667  0.12670  0.00000  1.0000
  Zr  Zr23      1.0  0.16667  0.16667  0.03997  1.0000
  Zr  Zr24      1.0  0.16667  0.16667  0.29338  1.0000
  O   O1        1.0  0.05683  0.00000  0.03177  1.0000
  O   O2        1.0  0.27652  0.00000  0.03177  1.0000
  O   O3        1.0  0.27652  0.00000  0.30158  1.0000
  O   O4        1.0  0.05683  0.00000  0.30158  1.0000
  O   O5        1.0  0.03177  0.05683  0.00000  1.0000
  O   O6        1.0  0.03177  0.27652  0.00000  1.0000
  O   O7        1.0  0.30158  0.27652  0.00000  1.0000
  O   O8        1.0  0.30158  0.05683  0.00000  1.0000
  O   O9        1.0  0.00000  0.03177  0.05683  1.0000
  O   O10       1.0  0.00000  0.03177  0.27652  1.0000
  O   O11       1.0  0.00000  0.30158  0.27652  1.0000
  O   O12       1.0  0.00000  0.30158  0.05683  1.0000
  O   O13       1.0  0.00000  0.05683  0.30158  1.0000
  O   O14       1.0  0.00000  0.27652  0.30158  1.0000
  O   O15       1.0  0.00000  0.27652  0.03177  1.0000
  O   O16       1.0  0.00000  0.05683  0.03177  1.0000
  O   O17       1.0  0.05683  0.03177  0.00000  1.0000
  O   O18       1.0  0.27652  0.03177  0.00000  1.0000
  O   O19       1.0  0.27652  0.30158  0.00000  1.0000
  O   O20       1.0  0.05683  0.30158  0.00000  1.0000
  O   O21       1.0  0.03177  0.00000  0.27652  1.0000
  O   O22       1.0  0.03177  0.00000  0.05683  1.0000
  O   O23       1.0  0.30158  0.00000  0.05683  1.0000
  O   O24       1.0  0.30158  0.00000  0.27652  1.0000
  O   O25       1.0  0.05683  0.16667  0.19844  1.0000
  O   O26       1.0  0.27652  0.16667  0.19844  1.0000
  O   O27       1.0  0.27652  0.16667  0.13490  1.0000
  O   O28       1.0  0.05683  0.16667  0.13490  1.0000
  O   O29       1.0  0.03177  0.22349  0.16667  1.0000
  O   O30       1.0  0.03177  0.10984  0.16667  1.0000
  O   O31       1.0  0.30158  0.10984  0.16667  1.0000
  O   O32       1.0  0.30158  0.22349  0.16667  1.0000
  O   O33       1.0  0.00000  0.19844  0.22349  1.0000
  O   O34       1.0  0.00000  0.19844  0.10984  1.0000
  O   O35       1.0  0.00000  0.13490  0.10984  1.0000
  O   O36       1.0  0.00000  0.13490  0.22349  1.0000
  O   O37       1.0  0.00000  0.22349  0.13490  1.0000
  O   O38       1.0  0.00000  0.10984  0.13490  1.0000
  O   O39       1.0  0.00000  0.10984  0.19844  1.0000
  O   O40       1.0  0.00000  0.22349  0.19844  1.0000
  O   O41       1.0  0.05683  0.19844  0.16667  1.0000
  O   O42       1.0  0.27652  0.19844  0.16667  1.0000
  O   O43       1.0  0.27652  0.13490  0.16667  1.0000
  O   O44       1.0  0.05683  0.13490  0.16667  1.0000
  O   O45       1.0  0.03177  0.16667  0.10984  1.0000
  O   O46       1.0  0.03177  0.16667  0.22349  1.0000
  O   O47       1.0  0.30158  0.16667  0.22349  1.0000
  O   O48       1.0  0.30158  0.16667  0.10984  1.0000
  O   O49       1.0  0.22349  0.00000  0.19844  1.0000
  O   O50       1.0  0.10984  0.00000  0.19844  1.0000
  O   O51       1.0  0.10984  0.00000  0.13490  1.0000
  O   O52       1.0  0.22349  0.00000  0.13490  1.0000
  O   O53       1.0  0.19844  0.05683  0.16667  1.0000
  O   O54       1.0  0.19844  0.27652  0.16667  1.0000
  O   O55       1.0  0.13490  0.27652  0.16667  1.0000
  O   O56       1.0  0.13490  0.05683  0.16667  1.0000
  O   O57       1.0  0.16667  0.03177  0.22349  1.0000
  O   O58       1.0  0.16667  0.03177  0.10984  1.0000
  O   O59       1.0  0.16667  0.30158  0.10984  1.0000
  O   O60       1.0  0.16667  0.30158  0.22349  1.0000
  O   O61       1.0  0.16667  0.05683  0.13490  1.0000
  O   O62       1.0  0.16667  0.27652  0.13490  1.0000
  O   O63       1.0  0.16667  0.27652  0.19844  1.0000
  O   O64       1.0  0.16667  0.05683  0.19844  1.0000
  O   O65       1.0  0.22349  0.03177  0.16667  1.0000
  O   O66       1.0  0.10984  0.03177  0.16667  1.0000
  O   O67       1.0  0.10984  0.30158  0.16667  1.0000
  O   O68       1.0  0.22349  0.30158  0.16667  1.0000
  O   O69       1.0  0.19844  0.00000  0.10984  1.0000
  O   O70       1.0  0.19844  0.00000  0.22349  1.0000
  O   O71       1.0  0.13490  0.00000  0.22349  1.0000
  O   O72       1.0  0.13490  0.00000  0.10984  1.0000
  O   O73       1.0  0.22349  0.16667  0.03177  1.0000
  O   O74       1.0  0.10984  0.16667  0.03177  1.0000
  O   O75       1.0  0.10984  0.16667  0.30158  1.0000
  O   O76       1.0  0.22349  0.16667  0.30158  1.0000
  O   O77       1.0  0.19844  0.22349  0.00000  1.0000
  O   O78       1.0  0.19844  0.10984  0.00000  1.0000
  O   O79       1.0  0.13490  0.10984  0.00000  1.0000
  O   O80       1.0  0.13490  0.22349  0.00000  1.0000
  O   O81       1.0  0.16667  0.19844  0.05683  1.0000
  O   O82       1.0  0.16667  0.19844  0.27652  1.0000
  O   O83       1.0  0.16667  0.13490  0.27652  1.0000
  O   O84       1.0  0.16667  0.13490  0.05683  1.0000
  O   O85       1.0  0.16667  0.22349  0.30158  1.0000
  O   O86       1.0  0.16667  0.10984  0.30158  1.0000
  O   O87       1.0  0.16667  0.10984  0.03177  1.0000
  O   O88       1.0  0.16667  0.22349  0.03177  1.0000
  O   O89       1.0  0.22349  0.19844  0.00000  1.0000
  O   O90       1.0  0.10984  0.19844  0.00000  1.0000
  O   O91       1.0  0.10984  0.13490  0.00000  1.0000
  O   O92       1.0  0.22349  0.13490  0.00000  1.0000
  O   O93       1.0  0.19844  0.16667  0.27652  1.0000
  O   O94       1.0  0.19844  0.16667  0.05683  1.0000
  O   O95       1.0  0.13490  0.16667  0.05683  1.0000
  O   O96       1.0  0.13490  0.16667  0.27652  1.0000
  O   O97       1.0  0.01870  0.31464  0.31464  1.0000
  O   O98       1.0  0.31464  0.01870  0.31464  1.0000
  O   O99       1.0  0.31464  0.31464  0.01870  1.0000
  O   O100      1.0  0.01870  0.01870  0.01870  1.0000
  O   O101      1.0  0.31464  0.01870  0.01870  1.0000
  O   O102      1.0  0.01870  0.31464  0.01870  1.0000
  O   O103      1.0  0.31464  0.31464  0.31464  1.0000
  O   O104      1.0  0.01870  0.01870  0.31464  1.0000
  O   O105      1.0  0.01870  0.14797  0.14797  1.0000
  O   O106      1.0  0.31464  0.18536  0.14797  1.0000
  O   O107      1.0  0.31464  0.14797  0.18536  1.0000
  O   O108      1.0  0.01870  0.18536  0.18536  1.0000
  O   O109      1.0  0.31464  0.18536  0.18536  1.0000
  O   O110      1.0  0.01870  0.14797  0.18536  1.0000
  O   O111      1.0  0.31464  0.14797  0.14797  1.0000
  O   O112      1.0  0.01870  0.18536  0.14797  1.0000
  O   O113      1.0  0.18536  0.31464  0.14797  1.0000
  O   O114      1.0  0.14797  0.01870  0.14797  1.0000
  O   O115      1.0  0.14797  0.31464  0.18536  1.0000
  O   O116      1.0  0.18536  0.01870  0.18536  1.0000
  O   O117      1.0  0.14797  0.01870  0.18536  1.0000
  O   O118      1.0  0.18536  0.31464  0.18536  1.0000
  O   O119      1.0  0.14797  0.31464  0.14797  1.0000
  O   O120      1.0  0.18536  0.01870  0.14797  1.0000
  O   O121      1.0  0.18536  0.14797  0.31464  1.0000
  O   O122      1.0  0.14797  0.18536  0.31464  1.0000
  O   O123      1.0  0.14797  0.14797  0.01870  1.0000
  O   O124      1.0  0.18536  0.18536  0.01870  1.0000
  O   O125      1.0  0.14797  0.18536  0.01870  1.0000
  O   O126      1.0  0.18536  0.14797  0.01870  1.0000
  O   O127      1.0  0.14797  0.14797  0.31464  1.0000
  O   O128      1.0  0.18536  0.18536  0.31464  1.0000
  C   C1        1.0  0.05121  0.00000  0.28214  1.0000
  C   C2        1.0  0.28214  0.00000  0.28214  1.0000
  C   C3        1.0  0.28214  0.00000  0.05121  1.0000
  C   C4        1.0  0.05121  0.00000  0.05121  1.0000
  C   C5        1.0  0.28214  0.05121  0.00000  1.0000
  C   C6        1.0  0.28214  0.28214  0.00000  1.0000
  C   C7        1.0  0.05121  0.28214  0.00000  1.0000
  C   C8        1.0  0.05121  0.05121  0.00000  1.0000
  C   C9        1.0  0.00000  0.28214  0.05121  1.0000
  C   C10       1.0  0.00000  0.28214  0.28214  1.0000
  C   C11       1.0  0.00000  0.05121  0.28214  1.0000
  C   C12       1.0  0.00000  0.05121  0.05121  1.0000
  C   C13       1.0  0.05121  0.16667  0.11548  1.0000
  C   C14       1.0  0.28214  0.16667  0.11548  1.0000
  C   C15       1.0  0.28214  0.16667  0.21787  1.0000
  C   C16       1.0  0.05121  0.16667  0.21787  1.0000
  C   C17       1.0  0.28214  0.21787  0.16667  1.0000
  C   C18       1.0  0.28214  0.11548  0.16667  1.0000
  C   C19       1.0  0.05121  0.11548  0.16667  1.0000
  C   C20       1.0  0.05121  0.21787  0.16667  1.0000
  C   C21       1.0  0.00000  0.11548  0.21787  1.0000
  C   C22       1.0  0.00000  0.11548  0.11548  1.0000
  C   C23       1.0  0.00000  0.21787  0.11548  1.0000
  C   C24       1.0  0.00000  0.21787  0.21787  1.0000
  C   C25       1.0  0.21787  0.00000  0.11548  1.0000
  C   C26       1.0  0.11548  0.00000  0.11548  1.0000
  C   C27       1.0  0.11548  0.00000  0.21787  1.0000
  C   C28       1.0  0.21787  0.00000  0.21787  1.0000
  C   C29       1.0  0.11548  0.05121  0.16667  1.0000
  C   C30       1.0  0.11548  0.28214  0.16667  1.0000
  C   C31       1.0  0.21787  0.28214  0.16667  1.0000
  C   C32       1.0  0.21787  0.05121  0.16667  1.0000
  C   C33       1.0  0.16667  0.28214  0.21787  1.0000
  C   C34       1.0  0.16667  0.28214  0.11548  1.0000
  C   C35       1.0  0.16667  0.05121  0.11548  1.0000
  C   C36       1.0  0.16667  0.05121  0.21787  1.0000
  C   C37       1.0  0.21787  0.16667  0.28214  1.0000
  C   C38       1.0  0.11548  0.16667  0.28214  1.0000
  C   C39       1.0  0.11548  0.16667  0.05121  1.0000
  C   C40       1.0  0.21787  0.16667  0.05121  1.0000
  C   C41       1.0  0.11548  0.21787  0.00000  1.0000
  C   C42       1.0  0.11548  0.11548  0.00000  1.0000
  C   C43       1.0  0.21787  0.11548  0.00000  1.0000
  C   C44       1.0  0.21787  0.21787  0.00000  1.0000
  C   C45       1.0  0.16667  0.11548  0.05121  1.0000
  C   C46       1.0  0.16667  0.11548  0.28214  1.0000
  C   C47       1.0  0.16667  0.21787  0.28214  1.0000
  C   C48       1.0  0.16667  0.21787  0.05121  1.0000
  C   C49       1.0  0.06834  0.00000  0.06834  1.0000
  C   C50       1.0  0.26501  0.00000  0.06834  1.0000
  C   C51       1.0  0.06834  0.06834  0.00000  1.0000
  C   C52       1.0  0.26501  0.26501  0.00000  1.0000
  C   C53       1.0  0.26501  0.06834  0.00000  1.0000
  C   C54       1.0  0.00000  0.06834  0.06834  1.0000
  C   C55       1.0  0.00000  0.06834  0.26501  1.0000
  C   C56       1.0  0.00000  0.26501  0.26501  1.0000
  C   C57       1.0  0.00000  0.26501  0.06834  1.0000
  C   C58       1.0  0.06834  0.16667  0.23501  1.0000
  C   C59       1.0  0.26501  0.16667  0.23501  1.0000
  C   C60       1.0  0.26501  0.16667  0.09834  1.0000
  C   C61       1.0  0.06834  0.23501  0.16667  1.0000
  C   C62       1.0  0.26501  0.09834  0.16667  1.0000
  C   C63       1.0  0.26501  0.23501  0.16667  1.0000
  C   C64       1.0  0.00000  0.23501  0.23501  1.0000
  C   C65       1.0  0.00000  0.23501  0.09834  1.0000
  C   C66       1.0  0.00000  0.09834  0.09834  1.0000
  C   C67       1.0  0.00000  0.09834  0.23501  1.0000
  C   C68       1.0  0.09834  0.00000  0.09834  1.0000
  C   C69       1.0  0.23501  0.00000  0.09834  1.0000
  C   C70       1.0  0.23501  0.06834  0.16667  1.0000
  C   C71       1.0  0.23501  0.26501  0.16667  1.0000
  C   C72       1.0  0.09834  0.26501  0.16667  1.0000
  C   C73       1.0  0.16667  0.06834  0.23501  1.0000
  C   C74       1.0  0.16667  0.06834  0.09834  1.0000
  C   C75       1.0  0.16667  0.26501  0.09834  1.0000
  C   C76       1.0  0.16667  0.26501  0.23501  1.0000
  C   C77       1.0  0.23501  0.16667  0.06834  1.0000
  C   C78       1.0  0.09834  0.16667  0.26501  1.0000
  C   C79       1.0  0.23501  0.16667  0.26501  1.0000
  C   C80       1.0  0.23501  0.23501  0.00000  1.0000
  C   C81       1.0  0.23501  0.09834  0.00000  1.0000
  C   C82       1.0  0.09834  0.09834  0.00000  1.0000
  C   C83       1.0  0.16667  0.23501  0.06834  1.0000
  C   C84       1.0  0.16667  0.23501  0.26501  1.0000
  C   C85       1.0  0.16667  0.09834  0.26501  1.0000
  C   C86       1.0  0.16667  0.09834  0.06834  1.0000
  C   C87       1.0  0.08916  0.00000  0.06147  1.0000
  C   C88       1.0  0.24417  0.00000  0.06147  1.0000
  C   C89       1.0  0.06147  0.08916  0.00000  1.0000
  C   C90       1.0  0.27187  0.24417  0.00000  1.0000
  C   C91       1.0  0.27187  0.08916  0.00000  1.0000
  C   C92       1.0  0.00000  0.06147  0.08916  1.0000
  C   C93       1.0  0.00000  0.06147  0.24417  1.0000
  C   C94       1.0  0.00000  0.27187  0.24417  1.0000
  C   C95       1.0  0.00000  0.27187  0.08916  1.0000
  C   C96       1.0  0.00000  0.08916  0.27187  1.0000
  C   C97       1.0  0.00000  0.24417  0.27187  1.0000
  C   C98       1.0  0.00000  0.24417  0.06147  1.0000
  C   C99       1.0  0.00000  0.08916  0.06147  1.0000
  C   C100      1.0  0.08916  0.06147  0.00000  1.0000
  C   C101      1.0  0.24417  0.06147  0.00000  1.0000
  C   C102      1.0  0.24417  0.27187  0.00000  1.0000
  C   C103      1.0  0.06147  0.00000  0.08916  1.0000
  C   C104      1.0  0.27187  0.00000  0.08916  1.0000
  C   C105      1.0  0.08916  0.16667  0.22813  1.0000
  C   C106      1.0  0.24417  0.16667  0.22813  1.0000
  C   C107      1.0  0.24417  0.16667  0.10520  1.0000
  C   C108      1.0  0.06147  0.25585  0.16667  1.0000
  C   C109      1.0  0.27187  0.07750  0.16667  1.0000
  C   C110      1.0  0.27187  0.25585  0.16667  1.0000
  C   C111      1.0  0.00000  0.22813  0.25585  1.0000
  C   C112      1.0  0.00000  0.22813  0.07750  1.0000
  C   C113      1.0  0.00000  0.10520  0.07750  1.0000
  C   C114      1.0  0.00000  0.10520  0.25585  1.0000
  C   C115      1.0  0.00000  0.25585  0.10520  1.0000
  C   C116      1.0  0.00000  0.07750  0.10520  1.0000
  C   C117      1.0  0.00000  0.07750  0.22813  1.0000
  C   C118      1.0  0.00000  0.25585  0.22813  1.0000
  C   C119      1.0  0.08916  0.22813  0.16667  1.0000
  C   C120      1.0  0.24417  0.22813  0.16667  1.0000
  C   C121      1.0  0.24417  0.10520  0.16667  1.0000
  C   C122      1.0  0.06147  0.16667  0.25585  1.0000
  C   C123      1.0  0.27187  0.16667  0.25585  1.0000
  C   C124      1.0  0.27187  0.16667  0.07750  1.0000
  C   C125      1.0  0.07750  0.00000  0.10520  1.0000
  C   C126      1.0  0.25585  0.00000  0.10520  1.0000
  C   C127      1.0  0.22813  0.08916  0.16667  1.0000
  C   C128      1.0  0.22813  0.24417  0.16667  1.0000
  C   C129      1.0  0.10520  0.24417  0.16667  1.0000
  C   C130      1.0  0.16667  0.06147  0.25585  1.0000
  C   C131      1.0  0.16667  0.06147  0.07750  1.0000
  C   C132      1.0  0.16667  0.27187  0.07750  1.0000
  C   C133      1.0  0.16667  0.27187  0.25585  1.0000
  C   C134      1.0  0.16667  0.08916  0.10520  1.0000
  C   C135      1.0  0.16667  0.24417  0.10520  1.0000
  C   C136      1.0  0.16667  0.24417  0.22813  1.0000
  C   C137      1.0  0.16667  0.08916  0.22813  1.0000
  C   C138      1.0  0.25585  0.06147  0.16667  1.0000
  C   C139      1.0  0.07750  0.27187  0.16667  1.0000
  C   C140      1.0  0.25585  0.27187  0.16667  1.0000
  C   C141      1.0  0.22813  0.00000  0.07750  1.0000
  C   C142      1.0  0.10520  0.00000  0.07750  1.0000
  C   C143      1.0  0.25585  0.16667  0.06147  1.0000
  C   C144      1.0  0.07750  0.16667  0.27187  1.0000
  C   C145      1.0  0.25585  0.16667  0.27187  1.0000
  C   C146      1.0  0.22813  0.25585  0.00000  1.0000
  C   C147      1.0  0.22813  0.07750  0.00000  1.0000
  C   C148      1.0  0.10520  0.07750  0.00000  1.0000
  C   C149      1.0  0.16667  0.22813  0.08916  1.0000
  C   C150      1.0  0.16667  0.22813  0.24417  1.0000
  C   C151      1.0  0.16667  0.10520  0.24417  1.0000
  C   C152      1.0  0.16667  0.10520  0.08916  1.0000
  C   C153      1.0  0.16667  0.25585  0.27187  1.0000
  C   C154      1.0  0.16667  0.07750  0.27187  1.0000
  C   C155      1.0  0.16667  0.07750  0.06147  1.0000
  C   C156      1.0  0.16667  0.25585  0.06147  1.0000
  C   C157      1.0  0.25585  0.22813  0.00000  1.0000
  C   C158      1.0  0.07750  0.10520  0.00000  1.0000
  C   C159      1.0  0.25585  0.10520  0.00000  1.0000
  C   C160      1.0  0.22813  0.16667  0.24417  1.0000
  C   C161      1.0  0.22813  0.16667  0.08916  1.0000
  C   C162      1.0  0.10520  0.16667  0.24417  1.0000
  H   H1        1.0  0.09301  0.00000  0.04530  1.0000
  H   H2        1.0  0.24032  0.00000  0.04530  1.0000
  H   H3        1.0  0.04530  0.09301  0.00000  1.0000
  H   H4        1.0  0.28804  0.24032  0.00000  1.0000
  H   H5        1.0  0.28804  0.09301  0.00000  1.0000
  H   H6        1.0  0.00000  0.04530  0.09301  1.0000
  H   H7        1.0  0.00000  0.04530  0.24032  1.0000
  H   H8        1.0  0.00000  0.28804  0.24032  1.0000
  H   H9        1.0  0.00000  0.28804  0.09301  1.0000
  H   H10       1.0  0.00000  0.09301  0.28804  1.0000
  H   H11       1.0  0.00000  0.24032  0.28804  1.0000
  H   H12       1.0  0.00000  0.24032  0.04530  1.0000
  H   H13       1.0  0.00000  0.09301  0.04530  1.0000
  H   H14       1.0  0.09301  0.04530  0.00000  1.0000
  H   H15       1.0  0.24032  0.04530  0.00000  1.0000
  H   H16       1.0  0.24032  0.28804  0.00000  1.0000
  H   H17       1.0  0.04530  0.00000  0.09301  1.0000
  H   H18       1.0  0.28804  0.00000  0.09301  1.0000
  H   H19       1.0  0.09301  0.16667  0.21196  1.0000
  H   H20       1.0  0.24032  0.16667  0.21196  1.0000
  H   H21       1.0  0.24032  0.16667  0.12137  1.0000
  H   H22       1.0  0.04530  0.25968  0.16667  1.0000
  H   H23       1.0  0.28804  0.07366  0.16667  1.0000
  H   H24       1.0  0.28804  0.25968  0.16667  1.0000
  H   H25       1.0  0.00000  0.21196  0.25968  1.0000
  H   H26       1.0  0.00000  0.21196  0.07366  1.0000
  H   H27       1.0  0.00000  0.12137  0.07366  1.0000
  H   H28       1.0  0.00000  0.12137  0.25968  1.0000
  H   H29       1.0  0.00000  0.25968  0.12137  1.0000
  H   H30       1.0  0.00000  0.07366  0.12137  1.0000
  H   H31       1.0  0.00000  0.07366  0.21196  1.0000
  H   H32       1.0  0.00000  0.25968  0.21196  1.0000
  H   H33       1.0  0.09301  0.21196  0.16667  1.0000
  H   H34       1.0  0.24032  0.21196  0.16667  1.0000
  H   H35       1.0  0.24032  0.12137  0.16667  1.0000
  H   H36       1.0  0.04530  0.16667  0.25968  1.0000
  H   H37       1.0  0.28804  0.16667  0.25968  1.0000
  H   H38       1.0  0.28804  0.16667  0.07366  1.0000
  H   H39       1.0  0.07366  0.00000  0.12137  1.0000
  H   H40       1.0  0.25968  0.00000  0.12137  1.0000
  H   H41       1.0  0.21196  0.09301  0.16667  1.0000
  H   H42       1.0  0.21196  0.24032  0.16667  1.0000
  H   H43       1.0  0.12137  0.24032  0.16667  1.0000
  H   H44       1.0  0.16667  0.04530  0.25968  1.0000
  H   H45       1.0  0.16667  0.04530  0.07366  1.0000
  H   H46       1.0  0.16667  0.28804  0.07366  1.0000
  H   H47       1.0  0.16667  0.28804  0.25968  1.0000
  H   H48       1.0  0.16667  0.09301  0.12137  1.0000
  H   H49       1.0  0.16667  0.24032  0.12137  1.0000
  H   H50       1.0  0.16667  0.24032  0.21196  1.0000
  H   H51       1.0  0.16667  0.09301  0.21196  1.0000
  H   H52       1.0  0.25968  0.04530  0.16667  1.0000
  H   H53       1.0  0.07366  0.28804  0.16667  1.0000
  H   H54       1.0  0.25968  0.28804  0.16667  1.0000
  H   H55       1.0  0.21196  0.00000  0.07366  1.0000
  H   H56       1.0  0.12137  0.00000  0.07366  1.0000
  H   H57       1.0  0.25968  0.16667  0.04530  1.0000
  H   H58       1.0  0.07366  0.16667  0.28804  1.0000
  H   H59       1.0  0.25968  0.16667  0.28804  1.0000
  H   H60       1.0  0.21196  0.25968  0.00000  1.0000
  H   H61       1.0  0.21196  0.07366  0.00000  1.0000
  H   H62       1.0  0.12137  0.07366  0.00000  1.0000
  H   H63       1.0  0.16667  0.21196  0.09301  1.0000
  H   H64       1.0  0.16667  0.21196  0.24032  1.0000
  H   H65       1.0  0.16667  0.12137  0.24032  1.0000
  H   H66       1.0  0.16667  0.12137  0.09301  1.0000
  H   H67       1.0  0.16667  0.25968  0.28804  1.0000
  H   H68       1.0  0.16667  0.07366  0.28804  1.0000
  H   H69       1.0  0.16667  0.07366  0.04530  1.0000
  H   H70       1.0  0.16667  0.25968  0.04530  1.0000
  H   H71       1.0  0.25968  0.21196  0.00000  1.0000
  H   H72       1.0  0.07366  0.12137  0.00000  1.0000
  H   H73       1.0  0.25968  0.12137  0.00000  1.0000
  H   H74       1.0  0.21196  0.16667  0.24032  1.0000
  H   H75       1.0  0.21196  0.16667  0.09301  1.0000
  H   H76       1.0  0.12137  0.16667  0.24032  1.0000
  Zr  Zr25      1.0  0.03997  0.33333  0.00000  1.0000
  Zr  Zr26      1.0  0.29338  0.33333  0.00000  1.0000
  Zr  Zr27      1.0  0.00000  0.37330  0.00000  1.0000
  Zr  Zr28      1.0  0.00000  0.62671  0.00000  1.0000
  Zr  Zr29      1.0  0.00000  0.33333  0.03997  1.0000
  Zr  Zr30      1.0  0.00000  0.33333  0.29338  1.0000
  Zr  Zr31      1.0  0.03997  0.50000  0.16667  1.0000
  Zr  Zr32      1.0  0.29338  0.50000  0.16667  1.0000
  Zr  Zr33      1.0  0.00000  0.53997  0.16667  1.0000
  Zr  Zr34      1.0  0.00000  0.46003  0.16667  1.0000
  Zr  Zr35      1.0  0.00000  0.50000  0.20663  1.0000
  Zr  Zr36      1.0  0.00000  0.50000  0.12670  1.0000
  Zr  Zr37      1.0  0.20663  0.33333  0.16667  1.0000
  Zr  Zr38      1.0  0.12670  0.33333  0.16667  1.0000
  Zr  Zr39      1.0  0.16667  0.37330  0.16667  1.0000
  Zr  Zr40      1.0  0.16667  0.62671  0.16667  1.0000
  Zr  Zr41      1.0  0.16667  0.33333  0.20663  1.0000
  Zr  Zr42      1.0  0.16667  0.33333  0.12670  1.0000
  Zr  Zr43      1.0  0.20663  0.50000  0.00000  1.0000
  Zr  Zr44      1.0  0.12670  0.50000  0.00000  1.0000
  Zr  Zr45      1.0  0.16667  0.53997  0.00000  1.0000
  Zr  Zr46      1.0  0.16667  0.46003  0.00000  1.0000
  Zr  Zr47      1.0  0.16667  0.50000  0.03997  1.0000
  Zr  Zr48      1.0  0.16667  0.50000  0.29338  1.0000
  O   O129      1.0  0.05683  0.33333  0.03177  1.0000
  O   O130      1.0  0.27652  0.33333  0.03177  1.0000
  O   O131      1.0  0.27652  0.33333  0.30158  1.0000
  O   O132      1.0  0.05683  0.33333  0.30158  1.0000
  O   O133      1.0  0.03177  0.39016  0.00000  1.0000
  O   O134      1.0  0.03177  0.60986  0.00000  1.0000
  O   O135      1.0  0.30158  0.60986  0.00000  1.0000
  O   O136      1.0  0.30158  0.39016  0.00000  1.0000
  O   O137      1.0  0.00000  0.36510  0.05683  1.0000
  O   O138      1.0  0.00000  0.36510  0.27652  1.0000
  O   O139      1.0  0.00000  0.63491  0.27652  1.0000
  O   O140      1.0  0.00000  0.63491  0.05683  1.0000
  O   O141      1.0  0.00000  0.39016  0.30158  1.0000
  O   O142      1.0  0.00000  0.60986  0.30158  1.0000
  O   O143      1.0  0.00000  0.60986  0.03177  1.0000
  O   O144      1.0  0.00000  0.39016  0.03177  1.0000
  O   O145      1.0  0.05683  0.36510  0.00000  1.0000
  O   O146      1.0  0.27652  0.36510  0.00000  1.0000
  O   O147      1.0  0.27652  0.63491  0.00000  1.0000
  O   O148      1.0  0.05683  0.63491  0.00000  1.0000
  O   O149      1.0  0.03177  0.33333  0.27652  1.0000
  O   O150      1.0  0.03177  0.33333  0.05683  1.0000
  O   O151      1.0  0.30158  0.33333  0.05683  1.0000
  O   O152      1.0  0.30158  0.33333  0.27652  1.0000
  O   O153      1.0  0.05683  0.50000  0.19844  1.0000
  O   O154      1.0  0.27652  0.50000  0.19844  1.0000
  O   O155      1.0  0.27652  0.50000  0.13490  1.0000
  O   O156      1.0  0.05683  0.50000  0.13490  1.0000
  O   O157      1.0  0.03177  0.55683  0.16667  1.0000
  O   O158      1.0  0.03177  0.44317  0.16667  1.0000
  O   O159      1.0  0.30158  0.44317  0.16667  1.0000
  O   O160      1.0  0.30158  0.55683  0.16667  1.0000
  O   O161      1.0  0.00000  0.53177  0.22349  1.0000
  O   O162      1.0  0.00000  0.53177  0.10984  1.0000
  O   O163      1.0  0.00000  0.46823  0.10984  1.0000
  O   O164      1.0  0.00000  0.46823  0.22349  1.0000
  O   O165      1.0  0.00000  0.55683  0.13490  1.0000
  O   O166      1.0  0.00000  0.44317  0.13490  1.0000
  O   O167      1.0  0.00000  0.44317  0.19844  1.0000
  O   O168      1.0  0.00000  0.55683  0.19844  1.0000
  O   O169      1.0  0.05683  0.53177  0.16667  1.0000
  O   O170      1.0  0.27652  0.53177  0.16667  1.0000
  O   O171      1.0  0.27652  0.46823  0.16667  1.0000
  O   O172      1.0  0.05683  0.46823  0.16667  1.0000
  O   O173      1.0  0.03177  0.50000  0.10984  1.0000
  O   O174      1.0  0.03177  0.50000  0.22349  1.0000
  O   O175      1.0  0.30158  0.50000  0.22349  1.0000
  O   O176      1.0  0.30158  0.50000  0.10984  1.0000
  O   O177      1.0  0.22349  0.33333  0.19844  1.0000
  O   O178      1.0  0.10984  0.33333  0.19844  1.0000
  O   O179      1.0  0.10984  0.33333  0.13490  1.0000
  O   O180      1.0  0.22349  0.33333  0.13490  1.0000
  O   O181      1.0  0.19844  0.39016  0.16667  1.0000
  O   O182      1.0  0.19844  0.60986  0.16667  1.0000
  O   O183      1.0  0.13490  0.60986  0.16667  1.0000
  O   O184      1.0  0.13490  0.39016  0.16667  1.0000
  O   O185      1.0  0.16667  0.36510  0.22349  1.0000
  O   O186      1.0  0.16667  0.36510  0.10984  1.0000
  O   O187      1.0  0.16667  0.63491  0.10984  1.0000
  O   O188      1.0  0.16667  0.63491  0.22349  1.0000
  O   O189      1.0  0.16667  0.39016  0.13490  1.0000
  O   O190      1.0  0.16667  0.60986  0.13490  1.0000
  O   O191      1.0  0.16667  0.60986  0.19844  1.0000
  O   O192      1.0  0.16667  0.39016  0.19844  1.0000
  O   O193      1.0  0.22349  0.36510  0.16667  1.0000
  O   O194      1.0  0.10984  0.36510  0.16667  1.0000
  O   O195      1.0  0.10984  0.63491  0.16667  1.0000
  O   O196      1.0  0.22349  0.63491  0.16667  1.0000
  O   O197      1.0  0.19844  0.33333  0.10984  1.0000
  O   O198      1.0  0.19844  0.33333  0.22349  1.0000
  O   O199      1.0  0.13490  0.33333  0.22349  1.0000
  O   O200      1.0  0.13490  0.33333  0.10984  1.0000
  O   O201      1.0  0.22349  0.50000  0.03177  1.0000
  O   O202      1.0  0.10984  0.50000  0.03177  1.0000
  O   O203      1.0  0.10984  0.50000  0.30158  1.0000
  O   O204      1.0  0.22349  0.50000  0.30158  1.0000
  O   O205      1.0  0.19844  0.55683  0.00000  1.0000
  O   O206      1.0  0.19844  0.44317  0.00000  1.0000
  O   O207      1.0  0.13490  0.44317  0.00000  1.0000
  O   O208      1.0  0.13490  0.55683  0.00000  1.0000
  O   O209      1.0  0.16667  0.53177  0.05683  1.0000
  O   O210      1.0  0.16667  0.53177  0.27652  1.0000
  O   O211      1.0  0.16667  0.46823  0.27652  1.0000
  O   O212      1.0  0.16667  0.46823  0.05683  1.0000
  O   O213      1.0  0.16667  0.55683  0.30158  1.0000
  O   O214      1.0  0.16667  0.44317  0.30158  1.0000
  O   O215      1.0  0.16667  0.44317  0.03177  1.0000
  O   O216      1.0  0.16667  0.55683  0.03177  1.0000
  O   O217      1.0  0.22349  0.53177  0.00000  1.0000
  O   O218      1.0  0.10984  0.53177  0.00000  1.0000
  O   O219      1.0  0.10984  0.46823  0.00000  1.0000
  O   O220      1.0  0.22349  0.46823  0.00000  1.0000
  O   O221      1.0  0.19844  0.50000  0.27652  1.0000
  O   O222      1.0  0.19844  0.50000  0.05683  1.0000
  O   O223      1.0  0.13490  0.50000  0.05683  1.0000
  O   O224      1.0  0.13490  0.50000  0.27652  1.0000
  O   O225      1.0  0.01870  0.64797  0.31464  1.0000
  O   O226      1.0  0.31464  0.35203  0.31464  1.0000
  O   O227      1.0  0.31464  0.64797  0.01870  1.0000
  O   O228      1.0  0.01870  0.35203  0.01870  1.0000
  O   O229      1.0  0.31464  0.35203  0.01870  1.0000
  O   O230      1.0  0.01870  0.64797  0.01870  1.0000
  O   O231      1.0  0.31464  0.64797  0.31464  1.0000
  O   O232      1.0  0.01870  0.35203  0.31464  1.0000
  O   O233      1.0  0.01870  0.48130  0.14797  1.0000
  O   O234      1.0  0.31464  0.51870  0.14797  1.0000
  O   O235      1.0  0.31464  0.48130  0.18536  1.0000
  O   O236      1.0  0.01870  0.51870  0.18536  1.0000
  O   O237      1.0  0.31464  0.51870  0.18536  1.0000
  O   O238      1.0  0.01870  0.48130  0.18536  1.0000
  O   O239      1.0  0.31464  0.48130  0.14797  1.0000
  O   O240      1.0  0.01870  0.51870  0.14797  1.0000
  O   O241      1.0  0.18536  0.64797  0.14797  1.0000
  O   O242      1.0  0.14797  0.35203  0.14797  1.0000
  O   O243      1.0  0.14797  0.64797  0.18536  1.0000
  O   O244      1.0  0.18536  0.35203  0.18536  1.0000
  O   O245      1.0  0.14797  0.35203  0.18536  1.0000
  O   O246      1.0  0.18536  0.64797  0.18536  1.0000
  O   O247      1.0  0.14797  0.64797  0.14797  1.0000
  O   O248      1.0  0.18536  0.35203  0.14797  1.0000
  O   O249      1.0  0.18536  0.48130  0.31464  1.0000
  O   O250      1.0  0.14797  0.51870  0.31464  1.0000
  O   O251      1.0  0.14797  0.48130  0.01870  1.0000
  O   O252      1.0  0.18536  0.51870  0.01870  1.0000
  O   O253      1.0  0.14797  0.51870  0.01870  1.0000
  O   O254      1.0  0.18536  0.48130  0.01870  1.0000
  O   O255      1.0  0.14797  0.48130  0.31464  1.0000
  O   O256      1.0  0.18536  0.51870  0.31464  1.0000
  C   C163      1.0  0.05121  0.33333  0.28214  1.0000
  C   C164      1.0  0.28214  0.33333  0.28214  1.0000
  C   C165      1.0  0.28214  0.33333  0.05121  1.0000
  C   C166      1.0  0.05121  0.33333  0.05121  1.0000
  C   C167      1.0  0.28214  0.38454  0.00000  1.0000
  C   C168      1.0  0.28214  0.61548  0.00000  1.0000
  C   C169      1.0  0.05121  0.61548  0.00000  1.0000
  C   C170      1.0  0.05121  0.38454  0.00000  1.0000
  C   C171      1.0  0.00000  0.61548  0.05121  1.0000
  C   C172      1.0  0.00000  0.61548  0.28214  1.0000
  C   C173      1.0  0.00000  0.38454  0.28214  1.0000
  C   C174      1.0  0.00000  0.38454  0.05121  1.0000
  C   C175      1.0  0.05121  0.50000  0.11548  1.0000
  C   C176      1.0  0.28214  0.50000  0.11548  1.0000
  C   C177      1.0  0.28214  0.50000  0.21787  1.0000
  C   C178      1.0  0.05121  0.50000  0.21787  1.0000
  C   C179      1.0  0.28214  0.55121  0.16667  1.0000
  C   C180      1.0  0.28214  0.44881  0.16667  1.0000
  C   C181      1.0  0.05121  0.44881  0.16667  1.0000
  C   C182      1.0  0.05121  0.55121  0.16667  1.0000
  C   C183      1.0  0.00000  0.44881  0.21787  1.0000
  C   C184      1.0  0.00000  0.44881  0.11548  1.0000
  C   C185      1.0  0.00000  0.55121  0.11548  1.0000
  C   C186      1.0  0.00000  0.55121  0.21787  1.0000
  C   C187      1.0  0.21787  0.33333  0.11548  1.0000
  C   C188      1.0  0.11548  0.33333  0.11548  1.0000
  C   C189      1.0  0.11548  0.33333  0.21787  1.0000
  C   C190      1.0  0.21787  0.33333  0.21787  1.0000
  C   C191      1.0  0.11548  0.38454  0.16667  1.0000
  C   C192      1.0  0.11548  0.61548  0.16667  1.0000
  C   C193      1.0  0.21787  0.61548  0.16667  1.0000
  C   C194      1.0  0.21787  0.38454  0.16667  1.0000
  C   C195      1.0  0.16667  0.61548  0.21787  1.0000
  C   C196      1.0  0.16667  0.61548  0.11548  1.0000
  C   C197      1.0  0.16667  0.38454  0.11548  1.0000
  C   C198      1.0  0.16667  0.38454  0.21787  1.0000
  C   C199      1.0  0.21787  0.50000  0.28214  1.0000
  C   C200      1.0  0.11548  0.50000  0.28214  1.0000
  C   C201      1.0  0.11548  0.50000  0.05121  1.0000
  C   C202      1.0  0.21787  0.50000  0.05121  1.0000
  C   C203      1.0  0.11548  0.55121  0.00000  1.0000
  C   C204      1.0  0.11548  0.44881  0.00000  1.0000
  C   C205      1.0  0.21787  0.44881  0.00000  1.0000
  C   C206      1.0  0.21787  0.55121  0.00000  1.0000
  C   C207      1.0  0.16667  0.44881  0.05121  1.0000
  C   C208      1.0  0.16667  0.44881  0.28214  1.0000
  C   C209      1.0  0.16667  0.55121  0.28214  1.0000
  C   C210      1.0  0.16667  0.55121  0.05121  1.0000
  C   C211      1.0  0.06834  0.33333  0.06834  1.0000
  C   C212      1.0  0.26501  0.33333  0.26501  1.0000
  C   C213      1.0  0.06834  0.33333  0.26501  1.0000
  C   C214      1.0  0.06834  0.59834  0.00000  1.0000
  C   C215      1.0  0.26501  0.59834  0.00000  1.0000
  C   C216      1.0  0.00000  0.40167  0.06834  1.0000
  C   C217      1.0  0.00000  0.40167  0.26501  1.0000
  C   C218      1.0  0.00000  0.59834  0.26501  1.0000
  C   C219      1.0  0.00000  0.59834  0.06834  1.0000
  C   C220      1.0  0.06834  0.50000  0.23501  1.0000
  C   C221      1.0  0.26501  0.50000  0.23501  1.0000
  C   C222      1.0  0.26501  0.50000  0.09834  1.0000
  C   C223      1.0  0.06834  0.50000  0.09834  1.0000
  C   C224      1.0  0.06834  0.56834  0.16667  1.0000
  C   C225      1.0  0.26501  0.43167  0.16667  1.0000
  C   C226      1.0  0.26501  0.56834  0.16667  1.0000
  C   C227      1.0  0.00000  0.56834  0.23501  1.0000
  C   C228      1.0  0.00000  0.56834  0.09834  1.0000
  C   C229      1.0  0.00000  0.43167  0.09834  1.0000
  C   C230      1.0  0.00000  0.43167  0.23501  1.0000
  C   C231      1.0  0.23501  0.33333  0.23501  1.0000
  C   C232      1.0  0.09834  0.33333  0.23501  1.0000
  C   C233      1.0  0.09834  0.33333  0.09834  1.0000
  C   C234      1.0  0.23501  0.40167  0.16667  1.0000
  C   C235      1.0  0.23501  0.59834  0.16667  1.0000
  C   C236      1.0  0.09834  0.59834  0.16667  1.0000
  C   C237      1.0  0.16667  0.40167  0.23501  1.0000
  C   C238      1.0  0.16667  0.59834  0.09834  1.0000
  C   C239      1.0  0.16667  0.59834  0.23501  1.0000
  C   C240      1.0  0.23501  0.50000  0.06834  1.0000
  C   C241      1.0  0.09834  0.50000  0.06834  1.0000
  C   C242      1.0  0.09834  0.50000  0.26501  1.0000
  C   C243      1.0  0.23501  0.50000  0.26501  1.0000
  C   C244      1.0  0.23501  0.56834  0.00000  1.0000
  C   C245      1.0  0.09834  0.56834  0.00000  1.0000
  C   C246      1.0  0.16667  0.56834  0.06834  1.0000
  C   C247      1.0  0.16667  0.56834  0.26501  1.0000
  C   C248      1.0  0.16667  0.43167  0.26501  1.0000
  C   C249      1.0  0.08916  0.33333  0.06147  1.0000
  C   C250      1.0  0.24417  0.33333  0.27187  1.0000
  C   C251      1.0  0.08916  0.33333  0.27187  1.0000
  C   C252      1.0  0.06147  0.57750  0.00000  1.0000
  C   C253      1.0  0.27187  0.57750  0.00000  1.0000
  C   C254      1.0  0.00000  0.39480  0.08916  1.0000
  C   C255      1.0  0.00000  0.39480  0.24417  1.0000
  C   C256      1.0  0.00000  0.60520  0.24417  1.0000
  C   C257      1.0  0.00000  0.60520  0.08916  1.0000
  C   C258      1.0  0.00000  0.42250  0.27187  1.0000
  C   C259      1.0  0.00000  0.57750  0.27187  1.0000
  C   C260      1.0  0.00000  0.57750  0.06147  1.0000
  C   C261      1.0  0.00000  0.42250  0.06147  1.0000
  C   C262      1.0  0.24417  0.60520  0.00000  1.0000
  C   C263      1.0  0.08916  0.60520  0.00000  1.0000
  C   C264      1.0  0.06147  0.33333  0.24417  1.0000
  C   C265      1.0  0.06147  0.33333  0.08916  1.0000
  C   C266      1.0  0.27187  0.33333  0.24417  1.0000
  C   C267      1.0  0.08916  0.50000  0.22813  1.0000
  C   C268      1.0  0.24417  0.50000  0.22813  1.0000
  C   C269      1.0  0.24417  0.50000  0.10520  1.0000
  C   C270      1.0  0.08916  0.50000  0.10520  1.0000
  C   C271      1.0  0.06147  0.58918  0.16667  1.0000
  C   C272      1.0  0.27187  0.41084  0.16667  1.0000
  C   C273      1.0  0.27187  0.58918  0.16667  1.0000
  C   C274      1.0  0.00000  0.56147  0.25585  1.0000
  C   C275      1.0  0.00000  0.56147  0.07750  1.0000
  C   C276      1.0  0.00000  0.43853  0.07750  1.0000
  C   C277      1.0  0.00000  0.43853  0.25585  1.0000
  C   C278      1.0  0.00000  0.58918  0.10520  1.0000
  C   C279      1.0  0.00000  0.41084  0.10520  1.0000
  C   C280      1.0  0.00000  0.41084  0.22813  1.0000
  C   C281      1.0  0.00000  0.58918  0.22813  1.0000
  C   C282      1.0  0.08916  0.56147  0.16667  1.0000
  C   C283      1.0  0.24417  0.56147  0.16667  1.0000
  C   C284      1.0  0.24417  0.43853  0.16667  1.0000
  C   C285      1.0  0.06147  0.50000  0.07750  1.0000
  C   C286      1.0  0.06147  0.50000  0.25585  1.0000
  C   C287      1.0  0.27187  0.50000  0.25585  1.0000
  C   C288      1.0  0.27187  0.50000  0.07750  1.0000
  C   C289      1.0  0.25585  0.33333  0.22813  1.0000
  C   C290      1.0  0.07750  0.33333  0.22813  1.0000
  C   C291      1.0  0.07750  0.33333  0.10520  1.0000
  C   C292      1.0  0.22813  0.42250  0.16667  1.0000
  C   C293      1.0  0.22813  0.57750  0.16667  1.0000
  C   C294      1.0  0.10520  0.57750  0.16667  1.0000
  C   C295      1.0  0.16667  0.39480  0.25585  1.0000
  C   C296      1.0  0.16667  0.60520  0.07750  1.0000
  C   C297      1.0  0.16667  0.60520  0.25585  1.0000
  C   C298      1.0  0.16667  0.57750  0.10520  1.0000
  C   C299      1.0  0.16667  0.57750  0.22813  1.0000
  C   C300      1.0  0.16667  0.42250  0.22813  1.0000
  C   C301      1.0  0.25585  0.39480  0.16667  1.0000
  C   C302      1.0  0.07750  0.60520  0.16667  1.0000
  C   C303      1.0  0.25585  0.60520  0.16667  1.0000
  C   C304      1.0  0.22813  0.33333  0.25585  1.0000
  C   C305      1.0  0.10520  0.33333  0.25585  1.0000
  C   C306      1.0  0.10520  0.33333  0.07750  1.0000
  C   C307      1.0  0.25585  0.50000  0.06147  1.0000
  C   C308      1.0  0.07750  0.50000  0.06147  1.0000
  C   C309      1.0  0.07750  0.50000  0.27187  1.0000
  C   C310      1.0  0.25585  0.50000  0.27187  1.0000
  C   C311      1.0  0.22813  0.58918  0.00000  1.0000
  C   C312      1.0  0.10520  0.58918  0.00000  1.0000
  C   C313      1.0  0.16667  0.56147  0.08916  1.0000
  C   C314      1.0  0.16667  0.56147  0.24417  1.0000
  C   C315      1.0  0.16667  0.43853  0.24417  1.0000
  C   C316      1.0  0.16667  0.58918  0.27187  1.0000
  C   C317      1.0  0.16667  0.41084  0.27187  1.0000
  C   C318      1.0  0.16667  0.58918  0.06147  1.0000
  C   C319      1.0  0.25585  0.56147  0.00000  1.0000
  C   C320      1.0  0.07750  0.56147  0.00000  1.0000
  C   C321      1.0  0.22813  0.50000  0.24417  1.0000
  C   C322      1.0  0.22813  0.50000  0.08916  1.0000
  C   C323      1.0  0.10520  0.50000  0.08916  1.0000
  C   C324      1.0  0.10520  0.50000  0.24417  1.0000
  H   H77       1.0  0.09301  0.33333  0.04530  1.0000
  H   H78       1.0  0.24032  0.33333  0.28804  1.0000
  H   H79       1.0  0.09301  0.33333  0.28804  1.0000
  H   H80       1.0  0.04530  0.57366  0.00000  1.0000
  H   H81       1.0  0.28804  0.57366  0.00000  1.0000
  H   H82       1.0  0.00000  0.37863  0.09301  1.0000
  H   H83       1.0  0.00000  0.37863  0.24032  1.0000
  H   H84       1.0  0.00000  0.62137  0.24032  1.0000
  H   H85       1.0  0.00000  0.62137  0.09301  1.0000
  H   H86       1.0  0.00000  0.42634  0.28804  1.0000
  H   H87       1.0  0.00000  0.57366  0.28804  1.0000
  H   H88       1.0  0.00000  0.57366  0.04530  1.0000
  H   H89       1.0  0.00000  0.42634  0.04530  1.0000
  H   H90       1.0  0.24032  0.62137  0.00000  1.0000
  H   H91       1.0  0.09301  0.62137  0.00000  1.0000
  H   H92       1.0  0.04530  0.33333  0.24032  1.0000
  H   H93       1.0  0.04530  0.33333  0.09301  1.0000
  H   H94       1.0  0.28804  0.33333  0.24032  1.0000
  H   H95       1.0  0.09301  0.50000  0.21196  1.0000
  H   H96       1.0  0.24032  0.50000  0.21196  1.0000
  H   H97       1.0  0.24032  0.50000  0.12137  1.0000
  H   H98       1.0  0.09301  0.50000  0.12137  1.0000
  H   H99       1.0  0.04530  0.59301  0.16667  1.0000
  H   H100      1.0  0.28804  0.40699  0.16667  1.0000
  H   H101      1.0  0.28804  0.59301  0.16667  1.0000
  H   H102      1.0  0.00000  0.54530  0.25968  1.0000
  H   H103      1.0  0.00000  0.54530  0.07366  1.0000
  H   H104      1.0  0.00000  0.45470  0.07366  1.0000
  H   H105      1.0  0.00000  0.45470  0.25968  1.0000
  H   H106      1.0  0.00000  0.59301  0.12137  1.0000
  H   H107      1.0  0.00000  0.40699  0.12137  1.0000
  H   H108      1.0  0.00000  0.40699  0.21196  1.0000
  H   H109      1.0  0.00000  0.59301  0.21196  1.0000
  H   H110      1.0  0.09301  0.54530  0.16667  1.0000
  H   H111      1.0  0.24032  0.54530  0.16667  1.0000
  H   H112      1.0  0.24032  0.45470  0.16667  1.0000
  H   H113      1.0  0.04530  0.50000  0.07366  1.0000
  H   H114      1.0  0.04530  0.50000  0.25968  1.0000
  H   H115      1.0  0.28804  0.50000  0.25968  1.0000
  H   H116      1.0  0.28804  0.50000  0.07366  1.0000
  H   H117      1.0  0.25968  0.33333  0.21196  1.0000
  H   H118      1.0  0.07366  0.33333  0.21196  1.0000
  H   H119      1.0  0.07366  0.33333  0.12137  1.0000
  H   H120      1.0  0.21196  0.42634  0.16667  1.0000
  H   H121      1.0  0.21196  0.57366  0.16667  1.0000
  H   H122      1.0  0.12137  0.57366  0.16667  1.0000
  H   H123      1.0  0.16667  0.37863  0.25968  1.0000
  H   H124      1.0  0.16667  0.62137  0.07366  1.0000
  H   H125      1.0  0.16667  0.62137  0.25968  1.0000
  H   H126      1.0  0.16667  0.57366  0.12137  1.0000
  H   H127      1.0  0.16667  0.57366  0.21196  1.0000
  H   H128      1.0  0.16667  0.42634  0.21196  1.0000
  H   H129      1.0  0.25968  0.37863  0.16667  1.0000
  H   H130      1.0  0.07366  0.62137  0.16667  1.0000
  H   H131      1.0  0.25968  0.62137  0.16667  1.0000
  H   H132      1.0  0.21196  0.33333  0.25968  1.0000
  H   H133      1.0  0.12137  0.33333  0.25968  1.0000
  H   H134      1.0  0.12137  0.33333  0.07366  1.0000
  H   H135      1.0  0.25968  0.50000  0.04530  1.0000
  H   H136      1.0  0.07366  0.50000  0.04530  1.0000
  H   H137      1.0  0.07366  0.50000  0.28804  1.0000
  H   H138      1.0  0.25968  0.50000  0.28804  1.0000
  H   H139      1.0  0.21196  0.59301  0.00000  1.0000
  H   H140      1.0  0.12137  0.59301  0.00000  1.0000
  H   H141      1.0  0.16667  0.54530  0.09301  1.0000
  H   H142      1.0  0.16667  0.54530  0.24032  1.0000
  H   H143      1.0  0.16667  0.45470  0.24032  1.0000
  H   H144      1.0  0.16667  0.59301  0.28804  1.0000
  H   H145      1.0  0.16667  0.40699  0.28804  1.0000
  H   H146      1.0  0.16667  0.59301  0.04530  1.0000
  H   H147      1.0  0.25968  0.54530  0.00000  1.0000
  H   H148      1.0  0.07366  0.54530  0.00000  1.0000
  H   H149      1.0  0.21196  0.50000  0.24032  1.0000
  H   H150      1.0  0.21196  0.50000  0.09301  1.0000
  H   H151      1.0  0.12137  0.50000  0.09301  1.0000
  H   H152      1.0  0.12137  0.50000  0.24032  1.0000
  Zr  Zr49      1.0  0.03997  0.66667  0.00000  1.0000
  Zr  Zr50      1.0  0.29338  0.66667  0.00000  1.0000
  Zr  Zr51      1.0  0.00000  0.70663  0.00000  1.0000
  Zr  Zr52      1.0  0.00000  0.96005  0.00000  1.0000
  Zr  Zr53      1.0  0.00000  0.66667  0.03997  1.0000
  Zr  Zr54      1.0  0.00000  0.66667  0.29338  1.0000
  Zr  Zr55      1.0  0.03997  0.83333  0.16667  1.0000
  Zr  Zr56      1.0  0.29338  0.83333  0.16667  1.0000
  Zr  Zr57      1.0  0.00000  0.87330  0.16667  1.0000
  Zr  Zr58      1.0  0.00000  0.79337  0.16667  1.0000
  Zr  Zr59      1.0  0.00000  0.83333  0.20663  1.0000
  Zr  Zr60      1.0  0.00000  0.83333  0.12670  1.0000
  Zr  Zr61      1.0  0.20663  0.66667  0.16667  1.0000
  Zr  Zr62      1.0  0.12670  0.66667  0.16667  1.0000
  Zr  Zr63      1.0  0.16667  0.70663  0.16667  1.0000
  Zr  Zr64      1.0  0.16667  0.96005  0.16667  1.0000
  Zr  Zr65      1.0  0.16667  0.66667  0.20663  1.0000
  Zr  Zr66      1.0  0.16667  0.66667  0.12670  1.0000
  Zr  Zr67      1.0  0.20663  0.83333  0.00000  1.0000
  Zr  Zr68      1.0  0.12670  0.83333  0.00000  1.0000
  Zr  Zr69      1.0  0.16667  0.87330  0.00000  1.0000
  Zr  Zr70      1.0  0.16667  0.79337  0.00000  1.0000
  Zr  Zr71      1.0  0.16667  0.83333  0.03997  1.0000
  Zr  Zr72      1.0  0.16667  0.83333  0.29338  1.0000
  O   O257      1.0  0.05683  0.66667  0.03177  1.0000
  O   O258      1.0  0.27652  0.66667  0.03177  1.0000
  O   O259      1.0  0.27652  0.66667  0.30158  1.0000
  O   O260      1.0  0.05683  0.66667  0.30158  1.0000
  O   O261      1.0  0.03177  0.72349  0.00000  1.0000
  O   O262      1.0  0.03177  0.94319  0.00000  1.0000
  O   O263      1.0  0.30158  0.94319  0.00000  1.0000
  O   O264      1.0  0.30158  0.72349  0.00000  1.0000
  O   O265      1.0  0.00000  0.69844  0.05683  1.0000
  O   O266      1.0  0.00000  0.69844  0.27652  1.0000
  O   O267      1.0  0.00000  0.96824  0.27652  1.0000
  O   O268      1.0  0.00000  0.96824  0.05683  1.0000
  O   O269      1.0  0.00000  0.72349  0.30158  1.0000
  O   O270      1.0  0.00000  0.94319  0.30158  1.0000
  O   O271      1.0  0.00000  0.94319  0.03177  1.0000
  O   O272      1.0  0.00000  0.72349  0.03177  1.0000
  O   O273      1.0  0.05683  0.69844  0.00000  1.0000
  O   O274      1.0  0.27652  0.69844  0.00000  1.0000
  O   O275      1.0  0.27652  0.96824  0.00000  1.0000
  O   O276      1.0  0.05683  0.96824  0.00000  1.0000
  O   O277      1.0  0.03177  0.66667  0.27652  1.0000
  O   O278      1.0  0.03177  0.66667  0.05683  1.0000
  O   O279      1.0  0.30158  0.66667  0.05683  1.0000
  O   O280      1.0  0.30158  0.66667  0.27652  1.0000
  O   O281      1.0  0.05683  0.83333  0.19844  1.0000
  O   O282      1.0  0.27652  0.83333  0.19844  1.0000
  O   O283      1.0  0.27652  0.83333  0.13490  1.0000
  O   O284      1.0  0.05683  0.83333  0.13490  1.0000
  O   O285      1.0  0.03177  0.89016  0.16667  1.0000
  O   O286      1.0  0.03177  0.77651  0.16667  1.0000
  O   O287      1.0  0.30158  0.77651  0.16667  1.0000
  O   O288      1.0  0.30158  0.89016  0.16667  1.0000
  O   O289      1.0  0.00000  0.86510  0.22349  1.0000
  O   O290      1.0  0.00000  0.86510  0.10984  1.0000
  O   O291      1.0  0.00000  0.80156  0.10984  1.0000
  O   O292      1.0  0.00000  0.80156  0.22349  1.0000
  O   O293      1.0  0.00000  0.89016  0.13490  1.0000
  O   O294      1.0  0.00000  0.77651  0.13490  1.0000
  O   O295      1.0  0.00000  0.77651  0.19844  1.0000
  O   O296      1.0  0.00000  0.89016  0.19844  1.0000
  O   O297      1.0  0.05683  0.86510  0.16667  1.0000
  O   O298      1.0  0.27652  0.86510  0.16667  1.0000
  O   O299      1.0  0.27652  0.80156  0.16667  1.0000
  O   O300      1.0  0.05683  0.80156  0.16667  1.0000
  O   O301      1.0  0.03177  0.83333  0.10984  1.0000
  O   O302      1.0  0.03177  0.83333  0.22349  1.0000
  O   O303      1.0  0.30158  0.83333  0.22349  1.0000
  O   O304      1.0  0.30158  0.83333  0.10984  1.0000
  O   O305      1.0  0.22349  0.66667  0.19844  1.0000
  O   O306      1.0  0.10984  0.66667  0.19844  1.0000
  O   O307      1.0  0.10984  0.66667  0.13490  1.0000
  O   O308      1.0  0.22349  0.66667  0.13490  1.0000
  O   O309      1.0  0.19844  0.72349  0.16667  1.0000
  O   O310      1.0  0.19844  0.94319  0.16667  1.0000
  O   O311      1.0  0.13490  0.94319  0.16667  1.0000
  O   O312      1.0  0.13490  0.72349  0.16667  1.0000
  O   O313      1.0  0.16667  0.69844  0.22349  1.0000
  O   O314      1.0  0.16667  0.69844  0.10984  1.0000
  O   O315      1.0  0.16667  0.96824  0.10984  1.0000
  O   O316      1.0  0.16667  0.96824  0.22349  1.0000
  O   O317      1.0  0.16667  0.72349  0.13490  1.0000
  O   O318      1.0  0.16667  0.94319  0.13490  1.0000
  O   O319      1.0  0.16667  0.94319  0.19844  1.0000
  O   O320      1.0  0.16667  0.72349  0.19844  1.0000
  O   O321      1.0  0.22349  0.69844  0.16667  1.0000
  O   O322      1.0  0.10984  0.69844  0.16667  1.0000
  O   O323      1.0  0.10984  0.96824  0.16667  1.0000
  O   O324      1.0  0.22349  0.96824  0.16667  1.0000
  O   O325      1.0  0.19844  0.66667  0.10984  1.0000
  O   O326      1.0  0.19844  0.66667  0.22349  1.0000
  O   O327      1.0  0.13490  0.66667  0.22349  1.0000
  O   O328      1.0  0.13490  0.66667  0.10984  1.0000
  O   O329      1.0  0.22349  0.83333  0.03177  1.0000
  O   O330      1.0  0.10984  0.83333  0.03177  1.0000
  O   O331      1.0  0.10984  0.83333  0.30158  1.0000
  O   O332      1.0  0.22349  0.83333  0.30158  1.0000
  O   O333      1.0  0.19844  0.89016  0.00000  1.0000
  O   O334      1.0  0.19844  0.77651  0.00000  1.0000
  O   O335      1.0  0.13490  0.77651  0.00000  1.0000
  O   O336      1.0  0.13490  0.89016  0.00000  1.0000
  O   O337      1.0  0.16667  0.86510  0.05683  1.0000
  O   O338      1.0  0.16667  0.86510  0.27652  1.0000
  O   O339      1.0  0.16667  0.80156  0.27652  1.0000
  O   O340      1.0  0.16667  0.80156  0.05683  1.0000
  O   O341      1.0  0.16667  0.89016  0.30158  1.0000
  O   O342      1.0  0.16667  0.77651  0.30158  1.0000
  O   O343      1.0  0.16667  0.77651  0.03177  1.0000
  O   O344      1.0  0.16667  0.89016  0.03177  1.0000
  O   O345      1.0  0.22349  0.86510  0.00000  1.0000
  O   O346      1.0  0.10984  0.86510  0.00000  1.0000
  O   O347      1.0  0.10984  0.80156  0.00000  1.0000
  O   O348      1.0  0.22349  0.80156  0.00000  1.0000
  O   O349      1.0  0.19844  0.83333  0.27652  1.0000
  O   O350      1.0  0.19844  0.83333  0.05683  1.0000
  O   O351      1.0  0.13490  0.83333  0.05683  1.0000
  O   O352      1.0  0.13490  0.83333  0.27652  1.0000
  O   O353      1.0  0.01870  0.98130  0.31464  1.0000
  O   O354      1.0  0.31464  0.68536  0.31464  1.0000
  O   O355      1.0  0.31464  0.98130  0.01870  1.0000
  O   O356      1.0  0.01870  0.68536  0.01870  1.0000
  O   O357      1.0  0.31464  0.68536  0.01870  1.0000
  O   O358      1.0  0.01870  0.98130  0.01870  1.0000
  O   O359      1.0  0.31464  0.98130  0.31464  1.0000
  O   O360      1.0  0.01870  0.68536  0.31464  1.0000
  O   O361      1.0  0.01870  0.81464  0.14797  1.0000
  O   O362      1.0  0.31464  0.85203  0.14797  1.0000
  O   O363      1.0  0.31464  0.81464  0.18536  1.0000
  O   O364      1.0  0.01870  0.85203  0.18536  1.0000
  O   O365      1.0  0.31464  0.85203  0.18536  1.0000
  O   O366      1.0  0.01870  0.81464  0.18536  1.0000
  O   O367      1.0  0.31464  0.81464  0.14797  1.0000
  O   O368      1.0  0.01870  0.85203  0.14797  1.0000
  O   O369      1.0  0.18536  0.98130  0.14797  1.0000
  O   O370      1.0  0.14797  0.68536  0.14797  1.0000
  O   O371      1.0  0.14797  0.98130  0.18536  1.0000
  O   O372      1.0  0.18536  0.68536  0.18536  1.0000
  O   O373      1.0  0.14797  0.68536  0.18536  1.0000
  O   O374      1.0  0.18536  0.98130  0.18536  1.0000
  O   O375      1.0  0.14797  0.98130  0.14797  1.0000
  O   O376      1.0  0.18536  0.68536  0.14797  1.0000
  O   O377      1.0  0.18536  0.81464  0.31464  1.0000
  O   O378      1.0  0.14797  0.85203  0.31464  1.0000
  O   O379      1.0  0.14797  0.81464  0.01870  1.0000
  O   O380      1.0  0.18536  0.85203  0.01870  1.0000
  O   O381      1.0  0.14797  0.85203  0.01870  1.0000
  O   O382      1.0  0.18536  0.81464  0.01870  1.0000
  O   O383      1.0  0.14797  0.81464  0.31464  1.0000
  O   O384      1.0  0.18536  0.85203  0.31464  1.0000
  C   C325      1.0  0.05121  0.66667  0.28214  1.0000
  C   C326      1.0  0.28214  0.66667  0.28214  1.0000
  C   C327      1.0  0.28214  0.66667  0.05121  1.0000
  C   C328      1.0  0.05121  0.66667  0.05121  1.0000
  C   C329      1.0  0.28214  0.71787  0.00000  1.0000
  C   C330      1.0  0.28214  0.94881  0.00000  1.0000
  C   C331      1.0  0.05121  0.94881  0.00000  1.0000
  C   C332      1.0  0.05121  0.71787  0.00000  1.0000
  C   C333      1.0  0.00000  0.94881  0.05121  1.0000
  C   C334      1.0  0.00000  0.94881  0.28214  1.0000
  C   C335      1.0  0.00000  0.71787  0.28214  1.0000
  C   C336      1.0  0.00000  0.71787  0.05121  1.0000
  C   C337      1.0  0.05121  0.83333  0.11548  1.0000
  C   C338      1.0  0.28214  0.83333  0.11548  1.0000
  C   C339      1.0  0.28214  0.83333  0.21787  1.0000
  C   C340      1.0  0.05121  0.83333  0.21787  1.0000
  C   C341      1.0  0.28214  0.88454  0.16667  1.0000
  C   C342      1.0  0.28214  0.78214  0.16667  1.0000
  C   C343      1.0  0.05121  0.78214  0.16667  1.0000
  C   C344      1.0  0.05121  0.88454  0.16667  1.0000
  C   C345      1.0  0.00000  0.78214  0.21787  1.0000
  C   C346      1.0  0.00000  0.78214  0.11548  1.0000
  C   C347      1.0  0.00000  0.88454  0.11548  1.0000
  C   C348      1.0  0.00000  0.88454  0.21787  1.0000
  C   C349      1.0  0.21787  0.66667  0.11548  1.0000
  C   C350      1.0  0.11548  0.66667  0.11548  1.0000
  C   C351      1.0  0.11548  0.66667  0.21787  1.0000
  C   C352      1.0  0.21787  0.66667  0.21787  1.0000
  C   C353      1.0  0.11548  0.71787  0.16667  1.0000
  C   C354      1.0  0.11548  0.94881  0.16667  1.0000
  C   C355      1.0  0.21787  0.94881  0.16667  1.0000
  C   C356      1.0  0.21787  0.71787  0.16667  1.0000
  C   C357      1.0  0.16667  0.94881  0.21787  1.0000
  C   C358      1.0  0.16667  0.94881  0.11548  1.0000
  C   C359      1.0  0.16667  0.71787  0.11548  1.0000
  C   C360      1.0  0.16667  0.71787  0.21787  1.0000
  C   C361      1.0  0.21787  0.83333  0.28214  1.0000
  C   C362      1.0  0.11548  0.83333  0.28214  1.0000
  C   C363      1.0  0.11548  0.83333  0.05121  1.0000
  C   C364      1.0  0.21787  0.83333  0.05121  1.0000
  C   C365      1.0  0.11548  0.88454  0.00000  1.0000
  C   C366      1.0  0.11548  0.78214  0.00000  1.0000
  C   C367      1.0  0.21787  0.78214  0.00000  1.0000
  C   C368      1.0  0.21787  0.88454  0.00000  1.0000
  C   C369      1.0  0.16667  0.78214  0.05121  1.0000
  C   C370      1.0  0.16667  0.78214  0.28214  1.0000
  C   C371      1.0  0.16667  0.88454  0.28214  1.0000
  C   C372      1.0  0.16667  0.88454  0.05121  1.0000
  C   C373      1.0  0.06834  0.66667  0.06834  1.0000
  C   C374      1.0  0.26501  0.66667  0.26501  1.0000
  C   C375      1.0  0.06834  0.66667  0.26501  1.0000
  C   C376      1.0  0.06834  0.73501  0.00000  1.0000
  C   C377      1.0  0.06834  0.93167  0.00000  1.0000
  C   C378      1.0  0.26501  0.93167  0.00000  1.0000
  C   C379      1.0  0.26501  0.73501  0.00000  1.0000
  C   C380      1.0  0.00000  0.73501  0.06834  1.0000
  C   C381      1.0  0.00000  0.73501  0.26501  1.0000
  C   C382      1.0  0.00000  0.93167  0.26501  1.0000
  C   C383      1.0  0.00000  0.93167  0.06834  1.0000
  C   C384      1.0  0.26501  0.83333  0.23501  1.0000
  C   C385      1.0  0.26501  0.83333  0.09834  1.0000
  C   C386      1.0  0.06834  0.83333  0.09834  1.0000
  C   C387      1.0  0.06834  0.90167  0.16667  1.0000
  C   C388      1.0  0.00000  0.90167  0.23501  1.0000
  C   C389      1.0  0.00000  0.90167  0.09834  1.0000
  C   C390      1.0  0.00000  0.76501  0.09834  1.0000
  C   C391      1.0  0.00000  0.76501  0.23501  1.0000
  C   C392      1.0  0.23501  0.66667  0.23501  1.0000
  C   C393      1.0  0.09834  0.66667  0.23501  1.0000
  C   C394      1.0  0.09834  0.66667  0.09834  1.0000
  C   C395      1.0  0.09834  0.93167  0.16667  1.0000
  C   C396      1.0  0.16667  0.93167  0.09834  1.0000
  C   C397      1.0  0.16667  0.93167  0.23501  1.0000
  C   C398      1.0  0.23501  0.83333  0.06834  1.0000
  C   C399      1.0  0.09834  0.83333  0.06834  1.0000
  C   C400      1.0  0.23501  0.83333  0.26501  1.0000
  C   C401      1.0  0.23501  0.90167  0.00000  1.0000
  C   C402      1.0  0.23501  0.76501  0.00000  1.0000
  C   C403      1.0  0.09834  0.76501  0.00000  1.0000
  C   C404      1.0  0.09834  0.90167  0.00000  1.0000
  C   C405      1.0  0.16667  0.90167  0.06834  1.0000
  C   C406      1.0  0.16667  0.90167  0.26501  1.0000
  C   C407      1.0  0.08916  0.66667  0.06147  1.0000
  C   C408      1.0  0.24417  0.66667  0.27187  1.0000
  C   C409      1.0  0.08916  0.66667  0.27187  1.0000
  C   C410      1.0  0.06147  0.75583  0.00000  1.0000
  C   C411      1.0  0.06147  0.91084  0.00000  1.0000
  C   C412      1.0  0.27187  0.91084  0.00000  1.0000
  C   C413      1.0  0.27187  0.75583  0.00000  1.0000
  C   C414      1.0  0.00000  0.72813  0.08916  1.0000
  C   C415      1.0  0.00000  0.72813  0.24417  1.0000
  C   C416      1.0  0.00000  0.93853  0.24417  1.0000
  C   C417      1.0  0.00000  0.93853  0.08916  1.0000
  C   C418      1.0  0.00000  0.75583  0.27187  1.0000
  C   C419      1.0  0.00000  0.91084  0.27187  1.0000
  C   C420      1.0  0.00000  0.91084  0.06147  1.0000
  C   C421      1.0  0.00000  0.75583  0.06147  1.0000
  C   C422      1.0  0.08916  0.72813  0.00000  1.0000
  C   C423      1.0  0.24417  0.72813  0.00000  1.0000
  C   C424      1.0  0.24417  0.93853  0.00000  1.0000
  C   C425      1.0  0.08916  0.93853  0.00000  1.0000
  C   C426      1.0  0.06147  0.66667  0.24417  1.0000
  C   C427      1.0  0.06147  0.66667  0.08916  1.0000
  C   C428      1.0  0.27187  0.66667  0.24417  1.0000
  C   C429      1.0  0.24417  0.83333  0.22813  1.0000
  C   C430      1.0  0.24417  0.83333  0.10520  1.0000
  C   C431      1.0  0.08916  0.83333  0.10520  1.0000
  C   C432      1.0  0.06147  0.92251  0.16667  1.0000
  C   C433      1.0  0.00000  0.89480  0.25585  1.0000
  C   C434      1.0  0.00000  0.89480  0.07750  1.0000
  C   C435      1.0  0.00000  0.77187  0.07750  1.0000
  C   C436      1.0  0.00000  0.77187  0.25585  1.0000
  C   C437      1.0  0.00000  0.92251  0.10520  1.0000
  C   C438      1.0  0.00000  0.74417  0.10520  1.0000
  C   C439      1.0  0.00000  0.74417  0.22813  1.0000
  C   C440      1.0  0.00000  0.92251  0.22813  1.0000
  C   C441      1.0  0.08916  0.89480  0.16667  1.0000
  C   C442      1.0  0.06147  0.83333  0.07750  1.0000
  C   C443      1.0  0.27187  0.83333  0.25585  1.0000
  C   C444      1.0  0.27187  0.83333  0.07750  1.0000
  C   C445      1.0  0.25585  0.66667  0.22813  1.0000
  C   C446      1.0  0.07750  0.66667  0.22813  1.0000
  C   C447      1.0  0.07750  0.66667  0.10520  1.0000
  C   C448      1.0  0.10520  0.91084  0.16667  1.0000
  C   C449      1.0  0.16667  0.93853  0.07750  1.0000
  C   C450      1.0  0.16667  0.93853  0.25585  1.0000
  C   C451      1.0  0.16667  0.91084  0.10520  1.0000
  C   C452      1.0  0.16667  0.91084  0.22813  1.0000
  C   C453      1.0  0.07750  0.93853  0.16667  1.0000
  C   C454      1.0  0.22813  0.66667  0.25585  1.0000
  C   C455      1.0  0.10520  0.66667  0.25585  1.0000
  C   C456      1.0  0.10520  0.66667  0.07750  1.0000
  C   C457      1.0  0.25585  0.83333  0.06147  1.0000
  C   C458      1.0  0.07750  0.83333  0.06147  1.0000
  C   C459      1.0  0.25585  0.83333  0.27187  1.0000
  C   C460      1.0  0.22813  0.92251  0.00000  1.0000
  C   C461      1.0  0.22813  0.74417  0.00000  1.0000
  C   C462      1.0  0.10520  0.74417  0.00000  1.0000
  C   C463      1.0  0.10520  0.92251  0.00000  1.0000
  C   C464      1.0  0.16667  0.89480  0.08916  1.0000
  C   C465      1.0  0.16667  0.89480  0.24417  1.0000
  C   C466      1.0  0.16667  0.92251  0.27187  1.0000
  C   C467      1.0  0.16667  0.92251  0.06147  1.0000
  C   C468      1.0  0.25585  0.89480  0.00000  1.0000
  C   C469      1.0  0.07750  0.89480  0.00000  1.0000
  C   C470      1.0  0.07750  0.77187  0.00000  1.0000
  C   C471      1.0  0.25585  0.77187  0.00000  1.0000
  C   C472      1.0  0.22813  0.83333  0.24417  1.0000
  C   C473      1.0  0.22813  0.83333  0.08916  1.0000
  C   C474      1.0  0.10520  0.83333  0.08916  1.0000
  H   H153      1.0  0.09301  0.66667  0.04530  1.0000
  H   H154      1.0  0.24032  0.66667  0.28804  1.0000
  H   H155      1.0  0.09301  0.66667  0.28804  1.0000
  H   H156      1.0  0.04530  0.75968  0.00000  1.0000
  H   H157      1.0  0.04530  0.90699  0.00000  1.0000
  H   H158      1.0  0.28804  0.90699  0.00000  1.0000
  H   H159      1.0  0.28804  0.75968  0.00000  1.0000
  H   H160      1.0  0.00000  0.71196  0.09301  1.0000
  H   H161      1.0  0.00000  0.71196  0.24032  1.0000
  H   H162      1.0  0.00000  0.95470  0.24032  1.0000
  H   H163      1.0  0.00000  0.95470  0.09301  1.0000
  H   H164      1.0  0.00000  0.75968  0.28804  1.0000
  H   H165      1.0  0.00000  0.90699  0.28804  1.0000
  H   H166      1.0  0.00000  0.90699  0.04530  1.0000
  H   H167      1.0  0.00000  0.75968  0.04530  1.0000
  H   H168      1.0  0.09301  0.71196  0.00000  1.0000
  H   H169      1.0  0.24032  0.71196  0.00000  1.0000
  H   H170      1.0  0.24032  0.95470  0.00000  1.0000
  H   H171      1.0  0.09301  0.95470  0.00000  1.0000
  H   H172      1.0  0.04530  0.66667  0.24032  1.0000
  H   H173      1.0  0.04530  0.66667  0.09301  1.0000
  H   H174      1.0  0.28804  0.66667  0.24032  1.0000
  H   H175      1.0  0.24032  0.83333  0.21196  1.0000
  H   H176      1.0  0.24032  0.83333  0.12137  1.0000
  H   H177      1.0  0.09301  0.83333  0.12137  1.0000
  H   H178      1.0  0.04530  0.92634  0.16667  1.0000
  H   H179      1.0  0.00000  0.87863  0.25968  1.0000
  H   H180      1.0  0.00000  0.87863  0.07366  1.0000
  H   H181      1.0  0.00000  0.78804  0.07366  1.0000
  H   H182      1.0  0.00000  0.78804  0.25968  1.0000
  H   H183      1.0  0.00000  0.92634  0.12137  1.0000
  H   H184      1.0  0.00000  0.74032  0.12137  1.0000
  H   H185      1.0  0.00000  0.74032  0.21196  1.0000
  H   H186      1.0  0.00000  0.92634  0.21196  1.0000
  H   H187      1.0  0.09301  0.87863  0.16667  1.0000
  H   H188      1.0  0.04530  0.83333  0.07366  1.0000
  H   H189      1.0  0.28804  0.83333  0.25968  1.0000
  H   H190      1.0  0.28804  0.83333  0.07366  1.0000
  H   H191      1.0  0.25968  0.66667  0.21196  1.0000
  H   H192      1.0  0.07366  0.66667  0.21196  1.0000
  H   H193      1.0  0.07366  0.66667  0.12137  1.0000
  H   H194      1.0  0.12137  0.90699  0.16667  1.0000
  H   H195      1.0  0.16667  0.95470  0.07366  1.0000
  H   H196      1.0  0.16667  0.95470  0.25968  1.0000
  H   H197      1.0  0.16667  0.90699  0.12137  1.0000
  H   H198      1.0  0.16667  0.90699  0.21196  1.0000
  H   H199      1.0  0.07366  0.95470  0.16667  1.0000
  H   H200      1.0  0.21196  0.66667  0.25968  1.0000
  H   H201      1.0  0.12137  0.66667  0.25968  1.0000
  H   H202      1.0  0.12137  0.66667  0.07366  1.0000
  H   H203      1.0  0.25968  0.83333  0.04530  1.0000
  H   H204      1.0  0.07366  0.83333  0.04530  1.0000
  H   H205      1.0  0.25968  0.83333  0.28804  1.0000
  H   H206      1.0  0.21196  0.92634  0.00000  1.0000
  H   H207      1.0  0.21196  0.74032  0.00000  1.0000
  H   H208      1.0  0.12137  0.74032  0.00000  1.0000
  H   H209      1.0  0.12137  0.92634  0.00000  1.0000
  H   H210      1.0  0.16667  0.87863  0.09301  1.0000
  H   H211      1.0  0.16667  0.87863  0.24032  1.0000
  H   H212      1.0  0.16667  0.92634  0.28804  1.0000
  H   H213      1.0  0.16667  0.92634  0.04530  1.0000
  H   H214      1.0  0.25968  0.87863  0.00000  1.0000
  H   H215      1.0  0.07366  0.87863  0.00000  1.0000
  H   H216      1.0  0.07366  0.78804  0.00000  1.0000
  H   H217      1.0  0.25968  0.78804  0.00000  1.0000
  H   H218      1.0  0.21196  0.83333  0.24032  1.0000
  H   H219      1.0  0.21196  0.83333  0.09301  1.0000
  H   H220      1.0  0.12137  0.83333  0.09301  1.0000
  Zr  Zr73      1.0  0.37330  0.00000  0.00000  1.0000
  Zr  Zr74      1.0  0.62671  0.00000  0.00000  1.0000
  Zr  Zr75      1.0  0.33333  0.03997  0.00000  1.0000
  Zr  Zr76      1.0  0.33333  0.29338  0.00000  1.0000
  Zr  Zr77      1.0  0.33333  0.00000  0.03997  1.0000
  Zr  Zr78      1.0  0.33333  0.00000  0.29338  1.0000
  Zr  Zr79      1.0  0.37330  0.16667  0.16667  1.0000
  Zr  Zr80      1.0  0.62671  0.16667  0.16667  1.0000
  Zr  Zr81      1.0  0.33333  0.20663  0.16667  1.0000
  Zr  Zr82      1.0  0.33333  0.12670  0.16667  1.0000
  Zr  Zr83      1.0  0.33333  0.16667  0.20663  1.0000
  Zr  Zr84      1.0  0.33333  0.16667  0.12670  1.0000
  Zr  Zr85      1.0  0.53997  0.00000  0.16667  1.0000
  Zr  Zr86      1.0  0.46003  0.00000  0.16667  1.0000
  Zr  Zr87      1.0  0.50000  0.03997  0.16667  1.0000
  Zr  Zr88      1.0  0.50000  0.29338  0.16667  1.0000
  Zr  Zr89      1.0  0.50000  0.00000  0.20663  1.0000
  Zr  Zr90      1.0  0.50000  0.00000  0.12670  1.0000
  Zr  Zr91      1.0  0.53997  0.16667  0.00000  1.0000
  Zr  Zr92      1.0  0.46003  0.16667  0.00000  1.0000
  Zr  Zr93      1.0  0.50000  0.20663  0.00000  1.0000
  Zr  Zr94      1.0  0.50000  0.12670  0.00000  1.0000
  Zr  Zr95      1.0  0.50000  0.16667  0.03997  1.0000
  Zr  Zr96      1.0  0.50000  0.16667  0.29338  1.0000
  O   O385      1.0  0.39016  0.00000  0.03177  1.0000
  O   O386      1.0  0.60986  0.00000  0.03177  1.0000
  O   O387      1.0  0.60986  0.00000  0.30158  1.0000
  O   O388      1.0  0.39016  0.00000  0.30158  1.0000
  O   O389      1.0  0.36510  0.05683  0.00000  1.0000
  O   O390      1.0  0.36510  0.27652  0.00000  1.0000
  O   O391      1.0  0.63491  0.27652  0.00000  1.0000
  O   O392      1.0  0.63491  0.05683  0.00000  1.0000
  O   O393      1.0  0.33333  0.03177  0.05683  1.0000
  O   O394      1.0  0.33333  0.03177  0.27652  1.0000
  O   O395      1.0  0.33333  0.30158  0.27652  1.0000
  O   O396      1.0  0.33333  0.30158  0.05683  1.0000
  O   O397      1.0  0.33333  0.05683  0.30158  1.0000
  O   O398      1.0  0.33333  0.27652  0.30158  1.0000
  O   O399      1.0  0.33333  0.27652  0.03177  1.0000
  O   O400      1.0  0.33333  0.05683  0.03177  1.0000
  O   O401      1.0  0.39016  0.03177  0.00000  1.0000
  O   O402      1.0  0.60986  0.03177  0.00000  1.0000
  O   O403      1.0  0.60986  0.30158  0.00000  1.0000
  O   O404      1.0  0.39016  0.30158  0.00000  1.0000
  O   O405      1.0  0.36510  0.00000  0.27652  1.0000
  O   O406      1.0  0.36510  0.00000  0.05683  1.0000
  O   O407      1.0  0.63491  0.00000  0.05683  1.0000
  O   O408      1.0  0.63491  0.00000  0.27652  1.0000
  O   O409      1.0  0.39016  0.16667  0.19844  1.0000
  O   O410      1.0  0.60986  0.16667  0.19844  1.0000
  O   O411      1.0  0.60986  0.16667  0.13490  1.0000
  O   O412      1.0  0.39016  0.16667  0.13490  1.0000
  O   O413      1.0  0.36510  0.22349  0.16667  1.0000
  O   O414      1.0  0.36510  0.10984  0.16667  1.0000
  O   O415      1.0  0.63491  0.10984  0.16667  1.0000
  O   O416      1.0  0.63491  0.22349  0.16667  1.0000
  O   O417      1.0  0.33333  0.19844  0.22349  1.0000
  O   O418      1.0  0.33333  0.19844  0.10984  1.0000
  O   O419      1.0  0.33333  0.13490  0.10984  1.0000
  O   O420      1.0  0.33333  0.13490  0.22349  1.0000
  O   O421      1.0  0.33333  0.22349  0.13490  1.0000
  O   O422      1.0  0.33333  0.10984  0.13490  1.0000
  O   O423      1.0  0.33333  0.10984  0.19844  1.0000
  O   O424      1.0  0.33333  0.22349  0.19844  1.0000
  O   O425      1.0  0.39016  0.19844  0.16667  1.0000
  O   O426      1.0  0.60986  0.19844  0.16667  1.0000
  O   O427      1.0  0.60986  0.13490  0.16667  1.0000
  O   O428      1.0  0.39016  0.13490  0.16667  1.0000
  O   O429      1.0  0.36510  0.16667  0.10984  1.0000
  O   O430      1.0  0.36510  0.16667  0.22349  1.0000
  O   O431      1.0  0.63491  0.16667  0.22349  1.0000
  O   O432      1.0  0.63491  0.16667  0.10984  1.0000
  O   O433      1.0  0.55683  0.00000  0.19844  1.0000
  O   O434      1.0  0.44317  0.00000  0.19844  1.0000
  O   O435      1.0  0.44317  0.00000  0.13490  1.0000
  O   O436      1.0  0.55683  0.00000  0.13490  1.0000
  O   O437      1.0  0.53177  0.05683  0.16667  1.0000
  O   O438      1.0  0.53177  0.27652  0.16667  1.0000
  O   O439      1.0  0.46823  0.27652  0.16667  1.0000
  O   O440      1.0  0.46823  0.05683  0.16667  1.0000
  O   O441      1.0  0.50000  0.03177  0.22349  1.0000
  O   O442      1.0  0.50000  0.03177  0.10984  1.0000
  O   O443      1.0  0.50000  0.30158  0.10984  1.0000
  O   O444      1.0  0.50000  0.30158  0.22349  1.0000
  O   O445      1.0  0.50000  0.05683  0.13490  1.0000
  O   O446      1.0  0.50000  0.27652  0.13490  1.0000
  O   O447      1.0  0.50000  0.27652  0.19844  1.0000
  O   O448      1.0  0.50000  0.05683  0.19844  1.0000
  O   O449      1.0  0.55683  0.03177  0.16667  1.0000
  O   O450      1.0  0.44317  0.03177  0.16667  1.0000
  O   O451      1.0  0.44317  0.30158  0.16667  1.0000
  O   O452      1.0  0.55683  0.30158  0.16667  1.0000
  O   O453      1.0  0.53177  0.00000  0.10984  1.0000
  O   O454      1.0  0.53177  0.00000  0.22349  1.0000
  O   O455      1.0  0.46823  0.00000  0.22349  1.0000
  O   O456      1.0  0.46823  0.00000  0.10984  1.0000
  O   O457      1.0  0.55683  0.16667  0.03177  1.0000
  O   O458      1.0  0.44317  0.16667  0.03177  1.0000
  O   O459      1.0  0.44317  0.16667  0.30158  1.0000
  O   O460      1.0  0.55683  0.16667  0.30158  1.0000
  O   O461      1.0  0.53177  0.22349  0.00000  1.0000
  O   O462      1.0  0.53177  0.10984  0.00000  1.0000
  O   O463      1.0  0.46823  0.10984  0.00000  1.0000
  O   O464      1.0  0.46823  0.22349  0.00000  1.0000
  O   O465      1.0  0.50000  0.19844  0.05683  1.0000
  O   O466      1.0  0.50000  0.19844  0.27652  1.0000
  O   O467      1.0  0.50000  0.13490  0.27652  1.0000
  O   O468      1.0  0.50000  0.13490  0.05683  1.0000
  O   O469      1.0  0.50000  0.22349  0.30158  1.0000
  O   O470      1.0  0.50000  0.10984  0.30158  1.0000
  O   O471      1.0  0.50000  0.10984  0.03177  1.0000
  O   O472      1.0  0.50000  0.22349  0.03177  1.0000
  O   O473      1.0  0.55683  0.19844  0.00000  1.0000
  O   O474      1.0  0.44317  0.19844  0.00000  1.0000
  O   O475      1.0  0.44317  0.13490  0.00000  1.0000
  O   O476      1.0  0.55683  0.13490  0.00000  1.0000
  O   O477      1.0  0.53177  0.16667  0.27652  1.0000
  O   O478      1.0  0.53177  0.16667  0.05683  1.0000
  O   O479      1.0  0.46823  0.16667  0.05683  1.0000
  O   O480      1.0  0.46823  0.16667  0.27652  1.0000
  O   O481      1.0  0.35203  0.31464  0.31464  1.0000
  O   O482      1.0  0.64797  0.01870  0.31464  1.0000
  O   O483      1.0  0.64797  0.31464  0.01870  1.0000
  O   O484      1.0  0.35203  0.01870  0.01870  1.0000
  O   O485      1.0  0.64797  0.01870  0.01870  1.0000
  O   O486      1.0  0.35203  0.31464  0.01870  1.0000
  O   O487      1.0  0.64797  0.31464  0.31464  1.0000
  O   O488      1.0  0.35203  0.01870  0.31464  1.0000
  O   O489      1.0  0.35203  0.14797  0.14797  1.0000
  O   O490      1.0  0.64797  0.18536  0.14797  1.0000
  O   O491      1.0  0.64797  0.14797  0.18536  1.0000
  O   O492      1.0  0.35203  0.18536  0.18536  1.0000
  O   O493      1.0  0.64797  0.18536  0.18536  1.0000
  O   O494      1.0  0.35203  0.14797  0.18536  1.0000
  O   O495      1.0  0.64797  0.14797  0.14797  1.0000
  O   O496      1.0  0.35203  0.18536  0.14797  1.0000
  O   O497      1.0  0.51870  0.31464  0.14797  1.0000
  O   O498      1.0  0.48130  0.01870  0.14797  1.0000
  O   O499      1.0  0.48130  0.31464  0.18536  1.0000
  O   O500      1.0  0.51870  0.01870  0.18536  1.0000
  O   O501      1.0  0.48130  0.01870  0.18536  1.0000
  O   O502      1.0  0.51870  0.31464  0.18536  1.0000
  O   O503      1.0  0.48130  0.31464  0.14797  1.0000
  O   O504      1.0  0.51870  0.01870  0.14797  1.0000
  O   O505      1.0  0.51870  0.14797  0.31464  1.0000
  O   O506      1.0  0.48130  0.18536  0.31464  1.0000
  O   O507      1.0  0.48130  0.14797  0.01870  1.0000
  O   O508      1.0  0.51870  0.18536  0.01870  1.0000
  O   O509      1.0  0.48130  0.18536  0.01870  1.0000
  O   O510      1.0  0.51870  0.14797  0.01870  1.0000
  O   O511      1.0  0.48130  0.14797  0.31464  1.0000
  O   O512      1.0  0.51870  0.18536  0.31464  1.0000
  C   C475      1.0  0.38454  0.00000  0.28214  1.0000
  C   C476      1.0  0.61548  0.00000  0.28214  1.0000
  C   C477      1.0  0.61548  0.00000  0.05121  1.0000
  C   C478      1.0  0.38454  0.00000  0.05121  1.0000
  C   C479      1.0  0.61548  0.05121  0.00000  1.0000
  C   C480      1.0  0.61548  0.28214  0.00000  1.0000
  C   C481      1.0  0.38454  0.28214  0.00000  1.0000
  C   C482      1.0  0.38454  0.05121  0.00000  1.0000
  C   C483      1.0  0.33333  0.28214  0.05121  1.0000
  C   C484      1.0  0.33333  0.28214  0.28214  1.0000
  C   C485      1.0  0.33333  0.05121  0.28214  1.0000
  C   C486      1.0  0.33333  0.05121  0.05121  1.0000
  C   C487      1.0  0.38454  0.16667  0.11548  1.0000
  C   C488      1.0  0.61548  0.16667  0.11548  1.0000
  C   C489      1.0  0.61548  0.16667  0.21787  1.0000
  C   C490      1.0  0.38454  0.16667  0.21787  1.0000
  C   C491      1.0  0.61548  0.21787  0.16667  1.0000
  C   C492      1.0  0.61548  0.11548  0.16667  1.0000
  C   C493      1.0  0.38454  0.11548  0.16667  1.0000
  C   C494      1.0  0.38454  0.21787  0.16667  1.0000
  C   C495      1.0  0.33333  0.11548  0.21787  1.0000
  C   C496      1.0  0.33333  0.11548  0.11548  1.0000
  C   C497      1.0  0.33333  0.21787  0.11548  1.0000
  C   C498      1.0  0.33333  0.21787  0.21787  1.0000
  C   C499      1.0  0.55121  0.00000  0.11548  1.0000
  C   C500      1.0  0.44881  0.00000  0.11548  1.0000
  C   C501      1.0  0.44881  0.00000  0.21787  1.0000
  C   C502      1.0  0.55121  0.00000  0.21787  1.0000
  C   C503      1.0  0.44881  0.05121  0.16667  1.0000
  C   C504      1.0  0.44881  0.28214  0.16667  1.0000
  C   C505      1.0  0.55121  0.28214  0.16667  1.0000
  C   C506      1.0  0.55121  0.05121  0.16667  1.0000
  C   C507      1.0  0.50000  0.28214  0.21787  1.0000
  C   C508      1.0  0.50000  0.28214  0.11548  1.0000
  C   C509      1.0  0.50000  0.05121  0.11548  1.0000
  C   C510      1.0  0.50000  0.05121  0.21787  1.0000
  C   C511      1.0  0.55121  0.16667  0.28214  1.0000
  C   C512      1.0  0.44881  0.16667  0.28214  1.0000
  C   C513      1.0  0.44881  0.16667  0.05121  1.0000
  C   C514      1.0  0.55121  0.16667  0.05121  1.0000
  C   C515      1.0  0.44881  0.21787  0.00000  1.0000
  C   C516      1.0  0.44881  0.11548  0.00000  1.0000
  C   C517      1.0  0.55121  0.11548  0.00000  1.0000
  C   C518      1.0  0.55121  0.21787  0.00000  1.0000
  C   C519      1.0  0.50000  0.11548  0.05121  1.0000
  C   C520      1.0  0.50000  0.11548  0.28214  1.0000
  C   C521      1.0  0.50000  0.21787  0.28214  1.0000
  C   C522      1.0  0.50000  0.21787  0.05121  1.0000
  C   C523      1.0  0.40167  0.00000  0.06834  1.0000
  C   C524      1.0  0.59834  0.00000  0.26501  1.0000
  C   C525      1.0  0.40167  0.00000  0.26501  1.0000
  C   C526      1.0  0.40167  0.06834  0.00000  1.0000
  C   C527      1.0  0.40167  0.26501  0.00000  1.0000
  C   C528      1.0  0.59834  0.26501  0.00000  1.0000
  C   C529      1.0  0.59834  0.06834  0.00000  1.0000
  C   C530      1.0  0.33333  0.06834  0.06834  1.0000
  C   C531      1.0  0.33333  0.06834  0.26501  1.0000
  C   C532      1.0  0.33333  0.26501  0.26501  1.0000
  C   C533      1.0  0.33333  0.26501  0.06834  1.0000
  C   C534      1.0  0.59834  0.16667  0.23501  1.0000
  C   C535      1.0  0.40167  0.16667  0.09834  1.0000
  C   C536      1.0  0.40167  0.23501  0.16667  1.0000
  C   C537      1.0  0.40167  0.09834  0.16667  1.0000
  C   C538      1.0  0.59834  0.23501  0.16667  1.0000
  C   C539      1.0  0.33333  0.23501  0.23501  1.0000
  C   C540      1.0  0.33333  0.23501  0.09834  1.0000
  C   C541      1.0  0.33333  0.09834  0.09834  1.0000
  C   C542      1.0  0.33333  0.09834  0.23501  1.0000
  C   C543      1.0  0.56834  0.00000  0.23501  1.0000
  C   C544      1.0  0.43167  0.00000  0.23501  1.0000
  C   C545      1.0  0.43167  0.00000  0.09834  1.0000
  C   C546      1.0  0.56834  0.26501  0.16667  1.0000
  C   C547      1.0  0.43167  0.26501  0.16667  1.0000
  C   C548      1.0  0.43167  0.06834  0.16667  1.0000
  C   C549      1.0  0.50000  0.06834  0.23501  1.0000
  C   C550      1.0  0.50000  0.06834  0.09834  1.0000
  C   C551      1.0  0.50000  0.26501  0.09834  1.0000
  C   C552      1.0  0.50000  0.26501  0.23501  1.0000
  C   C553      1.0  0.43167  0.16667  0.06834  1.0000
  C   C554      1.0  0.56834  0.16667  0.26501  1.0000
  C   C555      1.0  0.56834  0.23501  0.00000  1.0000
  C   C556      1.0  0.56834  0.09834  0.00000  1.0000
  C   C557      1.0  0.43167  0.09834  0.00000  1.0000
  C   C558      1.0  0.43167  0.23501  0.00000  1.0000
  C   C559      1.0  0.50000  0.23501  0.06834  1.0000
  C   C560      1.0  0.50000  0.23501  0.26501  1.0000
  C   C561      1.0  0.50000  0.09834  0.26501  1.0000
  C   C562      1.0  0.50000  0.09834  0.06834  1.0000
  C   C563      1.0  0.42250  0.00000  0.06147  1.0000
  C   C564      1.0  0.57750  0.00000  0.27187  1.0000
  C   C565      1.0  0.42250  0.00000  0.27187  1.0000
  C   C566      1.0  0.39480  0.08916  0.00000  1.0000
  C   C567      1.0  0.39480  0.24417  0.00000  1.0000
  C   C568      1.0  0.60520  0.24417  0.00000  1.0000
  C   C569      1.0  0.60520  0.08916  0.00000  1.0000
  C   C570      1.0  0.33333  0.06147  0.08916  1.0000
  C   C571      1.0  0.33333  0.06147  0.24417  1.0000
  C   C572      1.0  0.33333  0.27187  0.24417  1.0000
  C   C573      1.0  0.33333  0.27187  0.08916  1.0000
  C   C574      1.0  0.33333  0.08916  0.27187  1.0000
  C   C575      1.0  0.33333  0.24417  0.27187  1.0000
  C   C576      1.0  0.33333  0.24417  0.06147  1.0000
  C   C577      1.0  0.33333  0.08916  0.06147  1.0000
  C   C578      1.0  0.42250  0.06147  0.00000  1.0000
  C   C579      1.0  0.57750  0.06147  0.00000  1.0000
  C   C580      1.0  0.57750  0.27187  0.00000  1.0000
  C   C581      1.0  0.42250  0.27187  0.00000  1.0000
  C   C582      1.0  0.39480  0.00000  0.24417  1.0000
  C   C583      1.0  0.39480  0.00000  0.08916  1.0000
  C   C584      1.0  0.60520  0.00000  0.24417  1.0000
  C   C585      1.0  0.57750  0.16667  0.22813  1.0000
  C   C586      1.0  0.42250  0.16667  0.10520  1.0000
  C   C587      1.0  0.39480  0.25585  0.16667  1.0000
  C   C588      1.0  0.39480  0.07750  0.16667  1.0000
  C   C589      1.0  0.60520  0.25585  0.16667  1.0000
  C   C590      1.0  0.33333  0.22813  0.25585  1.0000
  C   C591      1.0  0.33333  0.22813  0.07750  1.0000
  C   C592      1.0  0.33333  0.10520  0.07750  1.0000
  C   C593      1.0  0.33333  0.10520  0.25585  1.0000
  C   C594      1.0  0.33333  0.25585  0.10520  1.0000
  C   C595      1.0  0.33333  0.07750  0.10520  1.0000
  C   C596      1.0  0.33333  0.07750  0.22813  1.0000
  C   C597      1.0  0.33333  0.25585  0.22813  1.0000
  C   C598      1.0  0.42250  0.22813  0.16667  1.0000
  C   C599      1.0  0.57750  0.22813  0.16667  1.0000
  C   C600      1.0  0.42250  0.10520  0.16667  1.0000
  C   C601      1.0  0.39480  0.16667  0.07750  1.0000
  C   C602      1.0  0.60520  0.16667  0.25585  1.0000
  C   C603      1.0  0.58918  0.00000  0.22813  1.0000
  C   C604      1.0  0.41084  0.00000  0.22813  1.0000
  C   C605      1.0  0.41084  0.00000  0.10520  1.0000
  C   C606      1.0  0.56147  0.24417  0.16667  1.0000
  C   C607      1.0  0.43853  0.24417  0.16667  1.0000
  C   C608      1.0  0.43853  0.08916  0.16667  1.0000
  C   C609      1.0  0.50000  0.06147  0.25585  1.0000
  C   C610      1.0  0.50000  0.06147  0.07750  1.0000
  C   C611      1.0  0.50000  0.27187  0.07750  1.0000
  C   C612      1.0  0.50000  0.27187  0.25585  1.0000
  C   C613      1.0  0.50000  0.08916  0.10520  1.0000
  C   C614      1.0  0.50000  0.24417  0.10520  1.0000
  C   C615      1.0  0.50000  0.24417  0.22813  1.0000
  C   C616      1.0  0.50000  0.08916  0.22813  1.0000
  C   C617      1.0  0.41084  0.06147  0.16667  1.0000
  C   C618      1.0  0.41084  0.27187  0.16667  1.0000
  C   C619      1.0  0.58918  0.27187  0.16667  1.0000
  C   C620      1.0  0.56147  0.00000  0.25585  1.0000
  C   C621      1.0  0.43853  0.00000  0.25585  1.0000
  C   C622      1.0  0.43853  0.00000  0.07750  1.0000
  C   C623      1.0  0.41084  0.16667  0.06147  1.0000
  C   C624      1.0  0.58918  0.16667  0.27187  1.0000
  C   C625      1.0  0.56147  0.25585  0.00000  1.0000
  C   C626      1.0  0.56147  0.07750  0.00000  1.0000
  C   C627      1.0  0.43853  0.07750  0.00000  1.0000
  C   C628      1.0  0.43853  0.25585  0.00000  1.0000
  C   C629      1.0  0.50000  0.22813  0.08916  1.0000
  C   C630      1.0  0.50000  0.22813  0.24417  1.0000
  C   C631      1.0  0.50000  0.10520  0.24417  1.0000
  C   C632      1.0  0.50000  0.10520  0.08916  1.0000
  C   C633      1.0  0.50000  0.25585  0.27187  1.0000
  C   C634      1.0  0.50000  0.07750  0.27187  1.0000
  C   C635      1.0  0.50000  0.07750  0.06147  1.0000
  C   C636      1.0  0.50000  0.25585  0.06147  1.0000
  C   C637      1.0  0.58918  0.22813  0.00000  1.0000
  C   C638      1.0  0.41084  0.22813  0.00000  1.0000
  C   C639      1.0  0.41084  0.10520  0.00000  1.0000
  C   C640      1.0  0.58918  0.10520  0.00000  1.0000
  C   C641      1.0  0.56147  0.16667  0.24417  1.0000
  C   C642      1.0  0.43853  0.16667  0.08916  1.0000
  H   H221      1.0  0.42634  0.00000  0.04530  1.0000
  H   H222      1.0  0.57366  0.00000  0.28804  1.0000
  H   H223      1.0  0.42634  0.00000  0.28804  1.0000
  H   H224      1.0  0.37863  0.09301  0.00000  1.0000
  H   H225      1.0  0.37863  0.24032  0.00000  1.0000
  H   H226      1.0  0.62137  0.24032  0.00000  1.0000
  H   H227      1.0  0.62137  0.09301  0.00000  1.0000
  H   H228      1.0  0.33333  0.04530  0.09301  1.0000
  H   H229      1.0  0.33333  0.04530  0.24032  1.0000
  H   H230      1.0  0.33333  0.28804  0.24032  1.0000
  H   H231      1.0  0.33333  0.28804  0.09301  1.0000
  H   H232      1.0  0.33333  0.09301  0.28804  1.0000
  H   H233      1.0  0.33333  0.24032  0.28804  1.0000
  H   H234      1.0  0.33333  0.24032  0.04530  1.0000
  H   H235      1.0  0.33333  0.09301  0.04530  1.0000
  H   H236      1.0  0.42634  0.04530  0.00000  1.0000
  H   H237      1.0  0.57366  0.04530  0.00000  1.0000
  H   H238      1.0  0.57366  0.28804  0.00000  1.0000
  H   H239      1.0  0.42634  0.28804  0.00000  1.0000
  H   H240      1.0  0.37863  0.00000  0.24032  1.0000
  H   H241      1.0  0.37863  0.00000  0.09301  1.0000
  H   H242      1.0  0.62137  0.00000  0.24032  1.0000
  H   H243      1.0  0.57366  0.16667  0.21196  1.0000
  H   H244      1.0  0.42634  0.16667  0.12137  1.0000
  H   H245      1.0  0.37863  0.25968  0.16667  1.0000
  H   H246      1.0  0.37863  0.07366  0.16667  1.0000
  H   H247      1.0  0.62137  0.25968  0.16667  1.0000
  H   H248      1.0  0.33333  0.21196  0.25968  1.0000
  H   H249      1.0  0.33333  0.21196  0.07366  1.0000
  H   H250      1.0  0.33333  0.12137  0.07366  1.0000
  H   H251      1.0  0.33333  0.12137  0.25968  1.0000
  H   H252      1.0  0.33333  0.25968  0.12137  1.0000
  H   H253      1.0  0.33333  0.07366  0.12137  1.0000
  H   H254      1.0  0.33333  0.07366  0.21196  1.0000
  H   H255      1.0  0.33333  0.25968  0.21196  1.0000
  H   H256      1.0  0.42634  0.21196  0.16667  1.0000
  H   H257      1.0  0.57366  0.21196  0.16667  1.0000
  H   H258      1.0  0.42634  0.12137  0.16667  1.0000
  H   H259      1.0  0.37863  0.16667  0.07366  1.0000
  H   H260      1.0  0.62137  0.16667  0.25968  1.0000
  H   H261      1.0  0.59301  0.00000  0.21196  1.0000
  H   H262      1.0  0.40699  0.00000  0.21196  1.0000
  H   H263      1.0  0.40699  0.00000  0.12137  1.0000
  H   H264      1.0  0.54530  0.24032  0.16667  1.0000
  H   H265      1.0  0.45470  0.24032  0.16667  1.0000
  H   H266      1.0  0.45470  0.09301  0.16667  1.0000
  H   H267      1.0  0.50000  0.04530  0.25968  1.0000
  H   H268      1.0  0.50000  0.04530  0.07366  1.0000
  H   H269      1.0  0.50000  0.28804  0.07366  1.0000
  H   H270      1.0  0.50000  0.28804  0.25968  1.0000
  H   H271      1.0  0.50000  0.09301  0.12137  1.0000
  H   H272      1.0  0.50000  0.24032  0.12137  1.0000
  H   H273      1.0  0.50000  0.24032  0.21196  1.0000
  H   H274      1.0  0.50000  0.09301  0.21196  1.0000
  H   H275      1.0  0.40699  0.04530  0.16667  1.0000
  H   H276      1.0  0.40699  0.28804  0.16667  1.0000
  H   H277      1.0  0.59301  0.28804  0.16667  1.0000
  H   H278      1.0  0.54530  0.00000  0.25968  1.0000
  H   H279      1.0  0.45470  0.00000  0.25968  1.0000
  H   H280      1.0  0.45470  0.00000  0.07366  1.0000
  H   H281      1.0  0.40699  0.16667  0.04530  1.0000
  H   H282      1.0  0.59301  0.16667  0.28804  1.0000
  H   H283      1.0  0.54530  0.25968  0.00000  1.0000
  H   H284      1.0  0.54530  0.07366  0.00000  1.0000
  H   H285      1.0  0.45470  0.07366  0.00000  1.0000
  H   H286      1.0  0.45470  0.25968  0.00000  1.0000
  H   H287      1.0  0.50000  0.21196  0.09301  1.0000
  H   H288      1.0  0.50000  0.21196  0.24032  1.0000
  H   H289      1.0  0.50000  0.12137  0.24032  1.0000
  H   H290      1.0  0.50000  0.12137  0.09301  1.0000
  H   H291      1.0  0.50000  0.25968  0.28804  1.0000
  H   H292      1.0  0.50000  0.07366  0.28804  1.0000
  H   H293      1.0  0.50000  0.07366  0.04530  1.0000
  H   H294      1.0  0.50000  0.25968  0.04530  1.0000
  H   H295      1.0  0.59301  0.21196  0.00000  1.0000
  H   H296      1.0  0.40699  0.21196  0.00000  1.0000
  H   H297      1.0  0.40699  0.12137  0.00000  1.0000
  H   H298      1.0  0.59301  0.12137  0.00000  1.0000
  H   H299      1.0  0.54530  0.16667  0.24032  1.0000
  H   H300      1.0  0.45470  0.16667  0.09301  1.0000
  Zr  Zr97      1.0  0.37330  0.33333  0.00000  1.0000
  Zr  Zr98      1.0  0.62671  0.33333  0.00000  1.0000
  Zr  Zr99      1.0  0.33333  0.37330  0.00000  1.0000
  Zr  Zr100     1.0  0.33333  0.62671  0.00000  1.0000
  Zr  Zr101     1.0  0.33333  0.33333  0.03997  1.0000
  Zr  Zr102     1.0  0.33333  0.33333  0.29338  1.0000
  Zr  Zr103     1.0  0.37330  0.50000  0.16667  1.0000
  Zr  Zr104     1.0  0.62671  0.50000  0.16667  1.0000
  Zr  Zr105     1.0  0.33333  0.53997  0.16667  1.0000
  Zr  Zr106     1.0  0.33333  0.46003  0.16667  1.0000
  Zr  Zr107     1.0  0.33333  0.50000  0.20663  1.0000
  Zr  Zr108     1.0  0.33333  0.50000  0.12670  1.0000
  Zr  Zr109     1.0  0.53997  0.33333  0.16667  1.0000
  Zr  Zr110     1.0  0.46003  0.33333  0.16667  1.0000
  Zr  Zr111     1.0  0.50000  0.37330  0.16667  1.0000
  Zr  Zr112     1.0  0.50000  0.62671  0.16667  1.0000
  Zr  Zr113     1.0  0.50000  0.33333  0.20663  1.0000
  Zr  Zr114     1.0  0.50000  0.33333  0.12670  1.0000
  Zr  Zr115     1.0  0.53997  0.50000  0.00000  1.0000
  Zr  Zr116     1.0  0.46003  0.50000  0.00000  1.0000
  Zr  Zr117     1.0  0.50000  0.53997  0.00000  1.0000
  Zr  Zr118     1.0  0.50000  0.46003  0.00000  1.0000
  Zr  Zr119     1.0  0.50000  0.50000  0.03997  1.0000
  Zr  Zr120     1.0  0.50000  0.50000  0.29338  1.0000
  O   O513      1.0  0.39016  0.33333  0.03177  1.0000
  O   O514      1.0  0.60986  0.33333  0.03177  1.0000
  O   O515      1.0  0.60986  0.33333  0.30158  1.0000
  O   O516      1.0  0.39016  0.33333  0.30158  1.0000
  O   O517      1.0  0.36510  0.39016  0.00000  1.0000
  O   O518      1.0  0.36510  0.60986  0.00000  1.0000
  O   O519      1.0  0.63491  0.60986  0.00000  1.0000
  O   O520      1.0  0.63491  0.39016  0.00000  1.0000
  O   O521      1.0  0.33333  0.36510  0.05683  1.0000
  O   O522      1.0  0.33333  0.36510  0.27652  1.0000
  O   O523      1.0  0.33333  0.63491  0.27652  1.0000
  O   O524      1.0  0.33333  0.63491  0.05683  1.0000
  O   O525      1.0  0.33333  0.39016  0.30158  1.0000
  O   O526      1.0  0.33333  0.60986  0.30158  1.0000
  O   O527      1.0  0.33333  0.60986  0.03177  1.0000
  O   O528      1.0  0.33333  0.39016  0.03177  1.0000
  O   O529      1.0  0.39016  0.36510  0.00000  1.0000
  O   O530      1.0  0.60986  0.36510  0.00000  1.0000
  O   O531      1.0  0.60986  0.63491  0.00000  1.0000
  O   O532      1.0  0.39016  0.63491  0.00000  1.0000
  O   O533      1.0  0.36510  0.33333  0.27652  1.0000
  O   O534      1.0  0.36510  0.33333  0.05683  1.0000
  O   O535      1.0  0.63491  0.33333  0.05683  1.0000
  O   O536      1.0  0.63491  0.33333  0.27652  1.0000
  O   O537      1.0  0.39016  0.50000  0.19844  1.0000
  O   O538      1.0  0.60986  0.50000  0.19844  1.0000
  O   O539      1.0  0.60986  0.50000  0.13490  1.0000
  O   O540      1.0  0.39016  0.50000  0.13490  1.0000
  O   O541      1.0  0.36510  0.55683  0.16667  1.0000
  O   O542      1.0  0.36510  0.44317  0.16667  1.0000
  O   O543      1.0  0.63491  0.44317  0.16667  1.0000
  O   O544      1.0  0.63491  0.55683  0.16667  1.0000
  O   O545      1.0  0.33333  0.53177  0.22349  1.0000
  O   O546      1.0  0.33333  0.53177  0.10984  1.0000
  O   O547      1.0  0.33333  0.46823  0.10984  1.0000
  O   O548      1.0  0.33333  0.46823  0.22349  1.0000
  O   O549      1.0  0.33333  0.55683  0.13490  1.0000
  O   O550      1.0  0.33333  0.44317  0.13490  1.0000
  O   O551      1.0  0.33333  0.44317  0.19844  1.0000
  O   O552      1.0  0.33333  0.55683  0.19844  1.0000
  O   O553      1.0  0.39016  0.53177  0.16667  1.0000
  O   O554      1.0  0.60986  0.53177  0.16667  1.0000
  O   O555      1.0  0.60986  0.46823  0.16667  1.0000
  O   O556      1.0  0.39016  0.46823  0.16667  1.0000
  O   O557      1.0  0.36510  0.50000  0.10984  1.0000
  O   O558      1.0  0.36510  0.50000  0.22349  1.0000
  O   O559      1.0  0.63491  0.50000  0.22349  1.0000
  O   O560      1.0  0.63491  0.50000  0.10984  1.0000
  O   O561      1.0  0.55683  0.33333  0.19844  1.0000
  O   O562      1.0  0.44317  0.33333  0.19844  1.0000
  O   O563      1.0  0.44317  0.33333  0.13490  1.0000
  O   O564      1.0  0.55683  0.33333  0.13490  1.0000
  O   O565      1.0  0.53177  0.39016  0.16667  1.0000
  O   O566      1.0  0.53177  0.60986  0.16667  1.0000
  O   O567      1.0  0.46823  0.60986  0.16667  1.0000
  O   O568      1.0  0.46823  0.39016  0.16667  1.0000
  O   O569      1.0  0.50000  0.36510  0.22349  1.0000
  O   O570      1.0  0.50000  0.36510  0.10984  1.0000
  O   O571      1.0  0.50000  0.63491  0.10984  1.0000
  O   O572      1.0  0.50000  0.63491  0.22349  1.0000
  O   O573      1.0  0.50000  0.39016  0.13490  1.0000
  O   O574      1.0  0.50000  0.60986  0.13490  1.0000
  O   O575      1.0  0.50000  0.60986  0.19844  1.0000
  O   O576      1.0  0.50000  0.39016  0.19844  1.0000
  O   O577      1.0  0.55683  0.36510  0.16667  1.0000
  O   O578      1.0  0.44317  0.36510  0.16667  1.0000
  O   O579      1.0  0.44317  0.63491  0.16667  1.0000
  O   O580      1.0  0.55683  0.63491  0.16667  1.0000
  O   O581      1.0  0.53177  0.33333  0.10984  1.0000
  O   O582      1.0  0.53177  0.33333  0.22349  1.0000
  O   O583      1.0  0.46823  0.33333  0.22349  1.0000
  O   O584      1.0  0.46823  0.33333  0.10984  1.0000
  O   O585      1.0  0.55683  0.50000  0.03177  1.0000
  O   O586      1.0  0.44317  0.50000  0.03177  1.0000
  O   O587      1.0  0.44317  0.50000  0.30158  1.0000
  O   O588      1.0  0.55683  0.50000  0.30158  1.0000
  O   O589      1.0  0.53177  0.55683  0.00000  1.0000
  O   O590      1.0  0.53177  0.44317  0.00000  1.0000
  O   O591      1.0  0.46823  0.44317  0.00000  1.0000
  O   O592      1.0  0.46823  0.55683  0.00000  1.0000
  O   O593      1.0  0.50000  0.53177  0.05683  1.0000
  O   O594      1.0  0.50000  0.53177  0.27652  1.0000
  O   O595      1.0  0.50000  0.46823  0.27652  1.0000
  O   O596      1.0  0.50000  0.46823  0.05683  1.0000
  O   O597      1.0  0.50000  0.55683  0.30158  1.0000
  O   O598      1.0  0.50000  0.44317  0.30158  1.0000
  O   O599      1.0  0.50000  0.44317  0.03177  1.0000
  O   O600      1.0  0.50000  0.55683  0.03177  1.0000
  O   O601      1.0  0.55683  0.53177  0.00000  1.0000
  O   O602      1.0  0.44317  0.53177  0.00000  1.0000
  O   O603      1.0  0.44317  0.46823  0.00000  1.0000
  O   O604      1.0  0.55683  0.46823  0.00000  1.0000
  O   O605      1.0  0.53177  0.50000  0.27652  1.0000
  O   O606      1.0  0.53177  0.50000  0.05683  1.0000
  O   O607      1.0  0.46823  0.50000  0.05683  1.0000
  O   O608      1.0  0.46823  0.50000  0.27652  1.0000
  O   O609      1.0  0.35203  0.64797  0.31464  1.0000
  O   O610      1.0  0.64797  0.35203  0.31464  1.0000
  O   O611      1.0  0.64797  0.64797  0.01870  1.0000
  O   O612      1.0  0.35203  0.35203  0.01870  1.0000
  O   O613      1.0  0.64797  0.35203  0.01870  1.0000
  O   O614      1.0  0.35203  0.64797  0.01870  1.0000
  O   O615      1.0  0.64797  0.64797  0.31464  1.0000
  O   O616      1.0  0.35203  0.35203  0.31464  1.0000
  O   O617      1.0  0.35203  0.48130  0.14797  1.0000
  O   O618      1.0  0.64797  0.51870  0.14797  1.0000
  O   O619      1.0  0.64797  0.48130  0.18536  1.0000
  O   O620      1.0  0.35203  0.51870  0.18536  1.0000
  O   O621      1.0  0.64797  0.51870  0.18536  1.0000
  O   O622      1.0  0.35203  0.48130  0.18536  1.0000
  O   O623      1.0  0.64797  0.48130  0.14797  1.0000
  O   O624      1.0  0.35203  0.51870  0.14797  1.0000
  O   O625      1.0  0.51870  0.64797  0.14797  1.0000
  O   O626      1.0  0.48130  0.35203  0.14797  1.0000
  O   O627      1.0  0.48130  0.64797  0.18536  1.0000
  O   O628      1.0  0.51870  0.35203  0.18536  1.0000
  O   O629      1.0  0.48130  0.35203  0.18536  1.0000
  O   O630      1.0  0.51870  0.64797  0.18536  1.0000
  O   O631      1.0  0.48130  0.64797  0.14797  1.0000
  O   O632      1.0  0.51870  0.35203  0.14797  1.0000
  O   O633      1.0  0.51870  0.48130  0.31464  1.0000
  O   O634      1.0  0.48130  0.51870  0.31464  1.0000
  O   O635      1.0  0.48130  0.48130  0.01870  1.0000
  O   O636      1.0  0.51870  0.51870  0.01870  1.0000
  O   O637      1.0  0.48130  0.51870  0.01870  1.0000
  O   O638      1.0  0.51870  0.48130  0.01870  1.0000
  O   O639      1.0  0.48130  0.48130  0.31464  1.0000
  O   O640      1.0  0.51870  0.51870  0.31464  1.0000
  C   C643      1.0  0.38454  0.33333  0.28214  1.0000
  C   C644      1.0  0.61548  0.33333  0.28214  1.0000
  C   C645      1.0  0.61548  0.33333  0.05121  1.0000
  C   C646      1.0  0.38454  0.33333  0.05121  1.0000
  C   C647      1.0  0.61548  0.38454  0.00000  1.0000
  C   C648      1.0  0.61548  0.61548  0.00000  1.0000
  C   C649      1.0  0.38454  0.61548  0.00000  1.0000
  C   C650      1.0  0.38454  0.38454  0.00000  1.0000
  C   C651      1.0  0.33333  0.61548  0.05121  1.0000
  C   C652      1.0  0.33333  0.61548  0.28214  1.0000
  C   C653      1.0  0.33333  0.38454  0.28214  1.0000
  C   C654      1.0  0.33333  0.38454  0.05121  1.0000
  C   C655      1.0  0.38454  0.50000  0.11548  1.0000
  C   C656      1.0  0.61548  0.50000  0.11548  1.0000
  C   C657      1.0  0.61548  0.50000  0.21787  1.0000
  C   C658      1.0  0.38454  0.50000  0.21787  1.0000
  C   C659      1.0  0.61548  0.55121  0.16667  1.0000
  C   C660      1.0  0.61548  0.44881  0.16667  1.0000
  C   C661      1.0  0.38454  0.44881  0.16667  1.0000
  C   C662      1.0  0.38454  0.55121  0.16667  1.0000
  C   C663      1.0  0.33333  0.44881  0.21787  1.0000
  C   C664      1.0  0.33333  0.44881  0.11548  1.0000
  C   C665      1.0  0.33333  0.55121  0.11548  1.0000
  C   C666      1.0  0.33333  0.55121  0.21787  1.0000
  C   C667      1.0  0.55121  0.33333  0.11548  1.0000
  C   C668      1.0  0.44881  0.33333  0.11548  1.0000
  C   C669      1.0  0.44881  0.33333  0.21787  1.0000
  C   C670      1.0  0.55121  0.33333  0.21787  1.0000
  C   C671      1.0  0.44881  0.38454  0.16667  1.0000
  C   C672      1.0  0.44881  0.61548  0.16667  1.0000
  C   C673      1.0  0.55121  0.61548  0.16667  1.0000
  C   C674      1.0  0.55121  0.38454  0.16667  1.0000
  C   C675      1.0  0.50000  0.61548  0.21787  1.0000
  C   C676      1.0  0.50000  0.61548  0.11548  1.0000
  C   C677      1.0  0.50000  0.38454  0.11548  1.0000
  C   C678      1.0  0.50000  0.38454  0.21787  1.0000
  C   C679      1.0  0.55121  0.50000  0.28214  1.0000
  C   C680      1.0  0.44881  0.50000  0.28214  1.0000
  C   C681      1.0  0.44881  0.50000  0.05121  1.0000
  C   C682      1.0  0.55121  0.50000  0.05121  1.0000
  C   C683      1.0  0.44881  0.55121  0.00000  1.0000
  C   C684      1.0  0.44881  0.44881  0.00000  1.0000
  C   C685      1.0  0.55121  0.44881  0.00000  1.0000
  C   C686      1.0  0.55121  0.55121  0.00000  1.0000
  C   C687      1.0  0.50000  0.44881  0.05121  1.0000
  C   C688      1.0  0.50000  0.44881  0.28214  1.0000
  C   C689      1.0  0.50000  0.55121  0.28214  1.0000
  C   C690      1.0  0.50000  0.55121  0.05121  1.0000
  C   C691      1.0  0.40167  0.33333  0.06834  1.0000
  C   C692      1.0  0.59834  0.33333  0.06834  1.0000
  C   C693      1.0  0.59834  0.33333  0.26501  1.0000
  C   C694      1.0  0.40167  0.40167  0.00000  1.0000
  C   C695      1.0  0.59834  0.59834  0.00000  1.0000
  C   C696      1.0  0.59834  0.40167  0.00000  1.0000
  C   C697      1.0  0.33333  0.40167  0.06834  1.0000
  C   C698      1.0  0.33333  0.40167  0.26501  1.0000
  C   C699      1.0  0.33333  0.59834  0.26501  1.0000
  C   C700      1.0  0.59834  0.50000  0.23501  1.0000
  C   C701      1.0  0.59834  0.50000  0.09834  1.0000
  C   C702      1.0  0.40167  0.50000  0.09834  1.0000
  C   C703      1.0  0.40167  0.56834  0.16667  1.0000
  C   C704      1.0  0.59834  0.43167  0.16667  1.0000
  C   C705      1.0  0.59834  0.56834  0.16667  1.0000
  C   C706      1.0  0.33333  0.56834  0.23501  1.0000
  C   C707      1.0  0.33333  0.43167  0.09834  1.0000
  C   C708      1.0  0.33333  0.43167  0.23501  1.0000
  C   C709      1.0  0.56834  0.33333  0.23501  1.0000
  C   C710      1.0  0.43167  0.33333  0.09834  1.0000
  C   C711      1.0  0.56834  0.33333  0.09834  1.0000
  C   C712      1.0  0.56834  0.40167  0.16667  1.0000
  C   C713      1.0  0.56834  0.59834  0.16667  1.0000
  C   C714      1.0  0.43167  0.59834  0.16667  1.0000
  C   C715      1.0  0.50000  0.40167  0.23501  1.0000
  C   C716      1.0  0.50000  0.59834  0.09834  1.0000
  C   C717      1.0  0.50000  0.59834  0.23501  1.0000
  C   C718      1.0  0.56834  0.50000  0.06834  1.0000
  C   C719      1.0  0.43167  0.50000  0.06834  1.0000
  C   C720      1.0  0.56834  0.50000  0.26501  1.0000
  C   C721      1.0  0.56834  0.56834  0.00000  1.0000
  C   C722      1.0  0.56834  0.43167  0.00000  1.0000
  C   C723      1.0  0.43167  0.43167  0.00000  1.0000
  C   C724      1.0  0.50000  0.56834  0.06834  1.0000
  C   C725      1.0  0.50000  0.56834  0.26501  1.0000
  C   C726      1.0  0.50000  0.43167  0.26501  1.0000
  C   C727      1.0  0.42250  0.33333  0.06147  1.0000
  C   C728      1.0  0.57750  0.33333  0.06147  1.0000
  C   C729      1.0  0.57750  0.33333  0.27187  1.0000
  C   C730      1.0  0.39480  0.42250  0.00000  1.0000
  C   C731      1.0  0.60520  0.57750  0.00000  1.0000
  C   C732      1.0  0.60520  0.42250  0.00000  1.0000
  C   C733      1.0  0.33333  0.39480  0.08916  1.0000
  C   C734      1.0  0.33333  0.39480  0.24417  1.0000
  C   C735      1.0  0.33333  0.60520  0.24417  1.0000
  C   C736      1.0  0.33333  0.42250  0.27187  1.0000
  C   C737      1.0  0.33333  0.57750  0.27187  1.0000
  C   C738      1.0  0.33333  0.42250  0.06147  1.0000
  C   C739      1.0  0.42250  0.39480  0.00000  1.0000
  C   C740      1.0  0.57750  0.39480  0.00000  1.0000
  C   C741      1.0  0.57750  0.60520  0.00000  1.0000
  C   C742      1.0  0.39480  0.33333  0.08916  1.0000
  C   C743      1.0  0.60520  0.33333  0.08916  1.0000
  C   C744      1.0  0.60520  0.33333  0.24417  1.0000
  C   C745      1.0  0.57750  0.50000  0.22813  1.0000
  C   C746      1.0  0.57750  0.50000  0.10520  1.0000
  C   C747      1.0  0.42250  0.50000  0.10520  1.0000
  C   C748      1.0  0.39480  0.58918  0.16667  1.0000
  C   C749      1.0  0.60520  0.41084  0.16667  1.0000
  C   C750      1.0  0.60520  0.58918  0.16667  1.0000
  C   C751      1.0  0.33333  0.56147  0.25585  1.0000
  C   C752      1.0  0.33333  0.43853  0.07750  1.0000
  C   C753      1.0  0.33333  0.43853  0.25585  1.0000
  C   C754      1.0  0.33333  0.41084  0.10520  1.0000
  C   C755      1.0  0.33333  0.41084  0.22813  1.0000
  C   C756      1.0  0.33333  0.58918  0.22813  1.0000
  C   C757      1.0  0.42250  0.56147  0.16667  1.0000
  C   C758      1.0  0.57750  0.56147  0.16667  1.0000
  C   C759      1.0  0.57750  0.43853  0.16667  1.0000
  C   C760      1.0  0.39480  0.50000  0.07750  1.0000
  C   C761      1.0  0.60520  0.50000  0.25585  1.0000
  C   C762      1.0  0.60520  0.50000  0.07750  1.0000
  C   C763      1.0  0.58918  0.33333  0.22813  1.0000
  C   C764      1.0  0.41084  0.33333  0.10520  1.0000
  C   C765      1.0  0.58918  0.33333  0.10520  1.0000
  C   C766      1.0  0.56147  0.42250  0.16667  1.0000
  C   C767      1.0  0.56147  0.57750  0.16667  1.0000
  C   C768      1.0  0.43853  0.57750  0.16667  1.0000
  C   C769      1.0  0.50000  0.39480  0.25585  1.0000
  C   C770      1.0  0.50000  0.60520  0.07750  1.0000
  C   C771      1.0  0.50000  0.60520  0.25585  1.0000
  C   C772      1.0  0.50000  0.57750  0.10520  1.0000
  C   C773      1.0  0.50000  0.57750  0.22813  1.0000
  C   C774      1.0  0.50000  0.42250  0.22813  1.0000
  C   C775      1.0  0.58918  0.39480  0.16667  1.0000
  C   C776      1.0  0.41084  0.60520  0.16667  1.0000
  C   C777      1.0  0.58918  0.60520  0.16667  1.0000
  C   C778      1.0  0.56147  0.33333  0.07750  1.0000
  C   C779      1.0  0.56147  0.33333  0.25585  1.0000
  C   C780      1.0  0.43853  0.33333  0.07750  1.0000
  C   C781      1.0  0.58918  0.50000  0.06147  1.0000
  C   C782      1.0  0.41084  0.50000  0.06147  1.0000
  C   C783      1.0  0.58918  0.50000  0.27187  1.0000
  C   C784      1.0  0.56147  0.58918  0.00000  1.0000
  C   C785      1.0  0.56147  0.41084  0.00000  1.0000
  C   C786      1.0  0.43853  0.41084  0.00000  1.0000
  C   C787      1.0  0.50000  0.56147  0.08916  1.0000
  C   C788      1.0  0.50000  0.56147  0.24417  1.0000
  C   C789      1.0  0.50000  0.43853  0.24417  1.0000
  C   C790      1.0  0.50000  0.58918  0.27187  1.0000
  C   C791      1.0  0.50000  0.41084  0.27187  1.0000
  C   C792      1.0  0.50000  0.58918  0.06147  1.0000
  C   C793      1.0  0.58918  0.56147  0.00000  1.0000
  C   C794      1.0  0.41084  0.43853  0.00000  1.0000
  C   C795      1.0  0.58918  0.43853  0.00000  1.0000
  C   C796      1.0  0.56147  0.50000  0.24417  1.0000
  C   C797      1.0  0.56147  0.50000  0.08916  1.0000
  C   C798      1.0  0.43853  0.50000  0.08916  1.0000
  H   H301      1.0  0.42634  0.33333  0.04530  1.0000
  H   H302      1.0  0.57366  0.33333  0.04530  1.0000
  H   H303      1.0  0.57366  0.33333  0.28804  1.0000
  H   H304      1.0  0.37863  0.42634  0.00000  1.0000
  H   H305      1.0  0.62137  0.57366  0.00000  1.0000
  H   H306      1.0  0.62137  0.42634  0.00000  1.0000
  H   H307      1.0  0.33333  0.37863  0.09301  1.0000
  H   H308      1.0  0.33333  0.37863  0.24032  1.0000
  H   H309      1.0  0.33333  0.62137  0.24032  1.0000
  H   H310      1.0  0.33333  0.42634  0.28804  1.0000
  H   H311      1.0  0.33333  0.57366  0.28804  1.0000
  H   H312      1.0  0.33333  0.42634  0.04530  1.0000
  H   H313      1.0  0.42634  0.37863  0.00000  1.0000
  H   H314      1.0  0.57366  0.37863  0.00000  1.0000
  H   H315      1.0  0.57366  0.62137  0.00000  1.0000
  H   H316      1.0  0.37863  0.33333  0.09301  1.0000
  H   H317      1.0  0.62137  0.33333  0.09301  1.0000
  H   H318      1.0  0.62137  0.33333  0.24032  1.0000
  H   H319      1.0  0.57366  0.50000  0.21196  1.0000
  H   H320      1.0  0.57366  0.50000  0.12137  1.0000
  H   H321      1.0  0.42634  0.50000  0.12137  1.0000
  H   H322      1.0  0.37863  0.59301  0.16667  1.0000
  H   H323      1.0  0.62137  0.40699  0.16667  1.0000
  H   H324      1.0  0.62137  0.59301  0.16667  1.0000
  H   H325      1.0  0.33333  0.54530  0.25968  1.0000
  H   H326      1.0  0.33333  0.45470  0.07366  1.0000
  H   H327      1.0  0.33333  0.45470  0.25968  1.0000
  H   H328      1.0  0.33333  0.40699  0.12137  1.0000
  H   H329      1.0  0.33333  0.40699  0.21196  1.0000
  H   H330      1.0  0.33333  0.59301  0.21196  1.0000
  H   H331      1.0  0.42634  0.54530  0.16667  1.0000
  H   H332      1.0  0.57366  0.54530  0.16667  1.0000
  H   H333      1.0  0.57366  0.45470  0.16667  1.0000
  H   H334      1.0  0.37863  0.50000  0.07366  1.0000
  H   H335      1.0  0.62137  0.50000  0.25968  1.0000
  H   H336      1.0  0.62137  0.50000  0.07366  1.0000
  H   H337      1.0  0.59301  0.33333  0.21196  1.0000
  H   H338      1.0  0.40699  0.33333  0.12137  1.0000
  H   H339      1.0  0.59301  0.33333  0.12137  1.0000
  H   H340      1.0  0.54530  0.42634  0.16667  1.0000
  H   H341      1.0  0.54530  0.57366  0.16667  1.0000
  H   H342      1.0  0.45470  0.57366  0.16667  1.0000
  H   H343      1.0  0.50000  0.37863  0.25968  1.0000
  H   H344      1.0  0.50000  0.62137  0.07366  1.0000
  H   H345      1.0  0.50000  0.62137  0.25968  1.0000
  H   H346      1.0  0.50000  0.57366  0.12137  1.0000
  H   H347      1.0  0.50000  0.57366  0.21196  1.0000
  H   H348      1.0  0.50000  0.42634  0.21196  1.0000
  H   H349      1.0  0.59301  0.37863  0.16667  1.0000
  H   H350      1.0  0.40699  0.62137  0.16667  1.0000
  H   H351      1.0  0.59301  0.62137  0.16667  1.0000
  H   H352      1.0  0.54530  0.33333  0.07366  1.0000
  H   H353      1.0  0.54530  0.33333  0.25968  1.0000
  H   H354      1.0  0.45470  0.33333  0.07366  1.0000
  H   H355      1.0  0.59301  0.50000  0.04530  1.0000
  H   H356      1.0  0.40699  0.50000  0.04530  1.0000
  H   H357      1.0  0.59301  0.50000  0.28804  1.0000
  H   H358      1.0  0.54530  0.59301  0.00000  1.0000
  H   H359      1.0  0.54530  0.40699  0.00000  1.0000
  H   H360      1.0  0.45470  0.40699  0.00000  1.0000
  H   H361      1.0  0.50000  0.54530  0.09301  1.0000
  H   H362      1.0  0.50000  0.54530  0.24032  1.0000
  H   H363      1.0  0.50000  0.45470  0.24032  1.0000
  H   H364      1.0  0.50000  0.59301  0.28804  1.0000
  H   H365      1.0  0.50000  0.40699  0.28804  1.0000
  H   H366      1.0  0.50000  0.59301  0.04530  1.0000
  H   H367      1.0  0.59301  0.54530  0.00000  1.0000
  H   H368      1.0  0.40699  0.45470  0.00000  1.0000
  H   H369      1.0  0.59301  0.45470  0.00000  1.0000
  H   H370      1.0  0.54530  0.50000  0.24032  1.0000
  H   H371      1.0  0.54530  0.50000  0.09301  1.0000
  H   H372      1.0  0.45470  0.50000  0.09301  1.0000
  Zr  Zr121     1.0  0.37330  0.66667  0.00000  1.0000
  Zr  Zr122     1.0  0.62671  0.66667  0.00000  1.0000
  Zr  Zr123     1.0  0.33333  0.70663  0.00000  1.0000
  Zr  Zr124     1.0  0.33333  0.96005  0.00000  1.0000
  Zr  Zr125     1.0  0.33333  0.66667  0.03997  1.0000
  Zr  Zr126     1.0  0.33333  0.66667  0.29338  1.0000
  Zr  Zr127     1.0  0.37330  0.83333  0.16667  1.0000
  Zr  Zr128     1.0  0.62671  0.83333  0.16667  1.0000
  Zr  Zr129     1.0  0.33333  0.87330  0.16667  1.0000
  Zr  Zr130     1.0  0.33333  0.79337  0.16667  1.0000
  Zr  Zr131     1.0  0.33333  0.83333  0.20663  1.0000
  Zr  Zr132     1.0  0.33333  0.83333  0.12670  1.0000
  Zr  Zr133     1.0  0.53997  0.66667  0.16667  1.0000
  Zr  Zr134     1.0  0.46003  0.66667  0.16667  1.0000
  Zr  Zr135     1.0  0.50000  0.70663  0.16667  1.0000
  Zr  Zr136     1.0  0.50000  0.96005  0.16667  1.0000
  Zr  Zr137     1.0  0.50000  0.66667  0.20663  1.0000
  Zr  Zr138     1.0  0.50000  0.66667  0.12670  1.0000
  Zr  Zr139     1.0  0.53997  0.83333  0.00000  1.0000
  Zr  Zr140     1.0  0.46003  0.83333  0.00000  1.0000
  Zr  Zr141     1.0  0.50000  0.87330  0.00000  1.0000
  Zr  Zr142     1.0  0.50000  0.79337  0.00000  1.0000
  Zr  Zr143     1.0  0.50000  0.83333  0.03997  1.0000
  Zr  Zr144     1.0  0.50000  0.83333  0.29338  1.0000
  O   O641      1.0  0.39016  0.66667  0.03177  1.0000
  O   O642      1.0  0.60986  0.66667  0.03177  1.0000
  O   O643      1.0  0.60986  0.66667  0.30158  1.0000
  O   O644      1.0  0.39016  0.66667  0.30158  1.0000
  O   O645      1.0  0.36510  0.72349  0.00000  1.0000
  O   O646      1.0  0.36510  0.94319  0.00000  1.0000
  O   O647      1.0  0.63491  0.94319  0.00000  1.0000
  O   O648      1.0  0.63491  0.72349  0.00000  1.0000
  O   O649      1.0  0.33333  0.69844  0.05683  1.0000
  O   O650      1.0  0.33333  0.69844  0.27652  1.0000
  O   O651      1.0  0.33333  0.96824  0.27652  1.0000
  O   O652      1.0  0.33333  0.96824  0.05683  1.0000
  O   O653      1.0  0.33333  0.72349  0.30158  1.0000
  O   O654      1.0  0.33333  0.94319  0.30158  1.0000
  O   O655      1.0  0.33333  0.94319  0.03177  1.0000
  O   O656      1.0  0.33333  0.72349  0.03177  1.0000
  O   O657      1.0  0.39016  0.69844  0.00000  1.0000
  O   O658      1.0  0.60986  0.69844  0.00000  1.0000
  O   O659      1.0  0.60986  0.96824  0.00000  1.0000
  O   O660      1.0  0.39016  0.96824  0.00000  1.0000
  O   O661      1.0  0.36510  0.66667  0.27652  1.0000
  O   O662      1.0  0.36510  0.66667  0.05683  1.0000
  O   O663      1.0  0.63491  0.66667  0.05683  1.0000
  O   O664      1.0  0.63491  0.66667  0.27652  1.0000
  O   O665      1.0  0.39016  0.83333  0.19844  1.0000
  O   O666      1.0  0.60986  0.83333  0.19844  1.0000
  O   O667      1.0  0.60986  0.83333  0.13490  1.0000
  O   O668      1.0  0.39016  0.83333  0.13490  1.0000
  O   O669      1.0  0.36510  0.89016  0.16667  1.0000
  O   O670      1.0  0.36510  0.77651  0.16667  1.0000
  O   O671      1.0  0.63491  0.77651  0.16667  1.0000
  O   O672      1.0  0.63491  0.89016  0.16667  1.0000
  O   O673      1.0  0.33333  0.86510  0.22349  1.0000
  O   O674      1.0  0.33333  0.86510  0.10984  1.0000
  O   O675      1.0  0.33333  0.80156  0.10984  1.0000
  O   O676      1.0  0.33333  0.80156  0.22349  1.0000
  O   O677      1.0  0.33333  0.89016  0.13490  1.0000
  O   O678      1.0  0.33333  0.77651  0.13490  1.0000
  O   O679      1.0  0.33333  0.77651  0.19844  1.0000
  O   O680      1.0  0.33333  0.89016  0.19844  1.0000
  O   O681      1.0  0.39016  0.86510  0.16667  1.0000
  O   O682      1.0  0.60986  0.86510  0.16667  1.0000
  O   O683      1.0  0.60986  0.80156  0.16667  1.0000
  O   O684      1.0  0.39016  0.80156  0.16667  1.0000
  O   O685      1.0  0.36510  0.83333  0.10984  1.0000
  O   O686      1.0  0.36510  0.83333  0.22349  1.0000
  O   O687      1.0  0.63491  0.83333  0.22349  1.0000
  O   O688      1.0  0.63491  0.83333  0.10984  1.0000
  O   O689      1.0  0.55683  0.66667  0.19844  1.0000
  O   O690      1.0  0.44317  0.66667  0.19844  1.0000
  O   O691      1.0  0.44317  0.66667  0.13490  1.0000
  O   O692      1.0  0.55683  0.66667  0.13490  1.0000
  O   O693      1.0  0.53177  0.72349  0.16667  1.0000
  O   O694      1.0  0.53177  0.94319  0.16667  1.0000
  O   O695      1.0  0.46823  0.94319  0.16667  1.0000
  O   O696      1.0  0.46823  0.72349  0.16667  1.0000
  O   O697      1.0  0.50000  0.69844  0.22349  1.0000
  O   O698      1.0  0.50000  0.69844  0.10984  1.0000
  O   O699      1.0  0.50000  0.96824  0.10984  1.0000
  O   O700      1.0  0.50000  0.96824  0.22349  1.0000
  O   O701      1.0  0.50000  0.72349  0.13490  1.0000
  O   O702      1.0  0.50000  0.94319  0.13490  1.0000
  O   O703      1.0  0.50000  0.94319  0.19844  1.0000
  O   O704      1.0  0.50000  0.72349  0.19844  1.0000
  O   O705      1.0  0.55683  0.69844  0.16667  1.0000
  O   O706      1.0  0.44317  0.69844  0.16667  1.0000
  O   O707      1.0  0.44317  0.96824  0.16667  1.0000
  O   O708      1.0  0.55683  0.96824  0.16667  1.0000
  O   O709      1.0  0.53177  0.66667  0.10984  1.0000
  O   O710      1.0  0.53177  0.66667  0.22349  1.0000
  O   O711      1.0  0.46823  0.66667  0.22349  1.0000
  O   O712      1.0  0.46823  0.66667  0.10984  1.0000
  O   O713      1.0  0.55683  0.83333  0.03177  1.0000
  O   O714      1.0  0.44317  0.83333  0.03177  1.0000
  O   O715      1.0  0.44317  0.83333  0.30158  1.0000
  O   O716      1.0  0.55683  0.83333  0.30158  1.0000
  O   O717      1.0  0.53177  0.89016  0.00000  1.0000
  O   O718      1.0  0.53177  0.77651  0.00000  1.0000
  O   O719      1.0  0.46823  0.77651  0.00000  1.0000
  O   O720      1.0  0.46823  0.89016  0.00000  1.0000
  O   O721      1.0  0.50000  0.86510  0.05683  1.0000
  O   O722      1.0  0.50000  0.86510  0.27652  1.0000
  O   O723      1.0  0.50000  0.80156  0.27652  1.0000
  O   O724      1.0  0.50000  0.80156  0.05683  1.0000
  O   O725      1.0  0.50000  0.89016  0.30158  1.0000
  O   O726      1.0  0.50000  0.77651  0.30158  1.0000
  O   O727      1.0  0.50000  0.77651  0.03177  1.0000
  O   O728      1.0  0.50000  0.89016  0.03177  1.0000
  O   O729      1.0  0.55683  0.86510  0.00000  1.0000
  O   O730      1.0  0.44317  0.86510  0.00000  1.0000
  O   O731      1.0  0.44317  0.80156  0.00000  1.0000
  O   O732      1.0  0.55683  0.80156  0.00000  1.0000
  O   O733      1.0  0.53177  0.83333  0.27652  1.0000
  O   O734      1.0  0.53177  0.83333  0.05683  1.0000
  O   O735      1.0  0.46823  0.83333  0.05683  1.0000
  O   O736      1.0  0.46823  0.83333  0.27652  1.0000
  O   O737      1.0  0.35203  0.98130  0.31464  1.0000
  O   O738      1.0  0.64797  0.68536  0.31464  1.0000
  O   O739      1.0  0.64797  0.98130  0.01870  1.0000
  O   O740      1.0  0.35203  0.68536  0.01870  1.0000
  O   O741      1.0  0.64797  0.68536  0.01870  1.0000
  O   O742      1.0  0.35203  0.98130  0.01870  1.0000
  O   O743      1.0  0.64797  0.98130  0.31464  1.0000
  O   O744      1.0  0.35203  0.68536  0.31464  1.0000
  O   O745      1.0  0.35203  0.81464  0.14797  1.0000
  O   O746      1.0  0.64797  0.85203  0.14797  1.0000
  O   O747      1.0  0.64797  0.81464  0.18536  1.0000
  O   O748      1.0  0.35203  0.85203  0.18536  1.0000
  O   O749      1.0  0.64797  0.85203  0.18536  1.0000
  O   O750      1.0  0.35203  0.81464  0.18536  1.0000
  O   O751      1.0  0.64797  0.81464  0.14797  1.0000
  O   O752      1.0  0.35203  0.85203  0.14797  1.0000
  O   O753      1.0  0.51870  0.98130  0.14797  1.0000
  O   O754      1.0  0.48130  0.68536  0.14797  1.0000
  O   O755      1.0  0.48130  0.98130  0.18536  1.0000
  O   O756      1.0  0.51870  0.68536  0.18536  1.0000
  O   O757      1.0  0.48130  0.68536  0.18536  1.0000
  O   O758      1.0  0.51870  0.98130  0.18536  1.0000
  O   O759      1.0  0.48130  0.98130  0.14797  1.0000
  O   O760      1.0  0.51870  0.68536  0.14797  1.0000
  O   O761      1.0  0.51870  0.81464  0.31464  1.0000
  O   O762      1.0  0.48130  0.85203  0.31464  1.0000
  O   O763      1.0  0.48130  0.81464  0.01870  1.0000
  O   O764      1.0  0.51870  0.85203  0.01870  1.0000
  O   O765      1.0  0.48130  0.85203  0.01870  1.0000
  O   O766      1.0  0.51870  0.81464  0.01870  1.0000
  O   O767      1.0  0.48130  0.81464  0.31464  1.0000
  O   O768      1.0  0.51870  0.85203  0.31464  1.0000
  C   C799      1.0  0.38454  0.66667  0.28214  1.0000
  C   C800      1.0  0.61548  0.66667  0.28214  1.0000
  C   C801      1.0  0.61548  0.66667  0.05121  1.0000
  C   C802      1.0  0.38454  0.66667  0.05121  1.0000
  C   C803      1.0  0.61548  0.71787  0.00000  1.0000
  C   C804      1.0  0.61548  0.94881  0.00000  1.0000
  C   C805      1.0  0.38454  0.94881  0.00000  1.0000
  C   C806      1.0  0.38454  0.71787  0.00000  1.0000
  C   C807      1.0  0.33333  0.94881  0.05121  1.0000
  C   C808      1.0  0.33333  0.94881  0.28214  1.0000
  C   C809      1.0  0.33333  0.71787  0.28214  1.0000
  C   C810      1.0  0.33333  0.71787  0.05121  1.0000
  C   C811      1.0  0.38454  0.83333  0.11548  1.0000
  C   C812      1.0  0.61548  0.83333  0.11548  1.0000
  C   C813      1.0  0.61548  0.83333  0.21787  1.0000
  C   C814      1.0  0.38454  0.83333  0.21787  1.0000
  C   C815      1.0  0.61548  0.88454  0.16667  1.0000
  C   C816      1.0  0.61548  0.78214  0.16667  1.0000
  C   C817      1.0  0.38454  0.78214  0.16667  1.0000
  C   C818      1.0  0.38454  0.88454  0.16667  1.0000
  C   C819      1.0  0.33333  0.78214  0.21787  1.0000
  C   C820      1.0  0.33333  0.78214  0.11548  1.0000
  C   C821      1.0  0.33333  0.88454  0.11548  1.0000
  C   C822      1.0  0.33333  0.88454  0.21787  1.0000
  C   C823      1.0  0.55121  0.66667  0.11548  1.0000
  C   C824      1.0  0.44881  0.66667  0.11548  1.0000
  C   C825      1.0  0.44881  0.66667  0.21787  1.0000
  C   C826      1.0  0.55121  0.66667  0.21787  1.0000
  C   C827      1.0  0.44881  0.71787  0.16667  1.0000
  C   C828      1.0  0.44881  0.94881  0.16667  1.0000
  C   C829      1.0  0.55121  0.94881  0.16667  1.0000
  C   C830      1.0  0.55121  0.71787  0.16667  1.0000
  C   C831      1.0  0.50000  0.94881  0.21787  1.0000
  C   C832      1.0  0.50000  0.94881  0.11548  1.0000
  C   C833      1.0  0.50000  0.71787  0.11548  1.0000
  C   C834      1.0  0.50000  0.71787  0.21787  1.0000
  C   C835      1.0  0.55121  0.83333  0.28214  1.0000
  C   C836      1.0  0.44881  0.83333  0.28214  1.0000
  C   C837      1.0  0.44881  0.83333  0.05121  1.0000
  C   C838      1.0  0.55121  0.83333  0.05121  1.0000
  C   C839      1.0  0.44881  0.88454  0.00000  1.0000
  C   C840      1.0  0.44881  0.78214  0.00000  1.0000
  C   C841      1.0  0.55121  0.78214  0.00000  1.0000
  C   C842      1.0  0.55121  0.88454  0.00000  1.0000
  C   C843      1.0  0.50000  0.78214  0.05121  1.0000
  C   C844      1.0  0.50000  0.78214  0.28214  1.0000
  C   C845      1.0  0.50000  0.88454  0.28214  1.0000
  C   C846      1.0  0.50000  0.88454  0.05121  1.0000
  C   C847      1.0  0.40167  0.66667  0.06834  1.0000
  C   C848      1.0  0.59834  0.66667  0.06834  1.0000
  C   C849      1.0  0.40167  0.66667  0.26501  1.0000
  C   C850      1.0  0.40167  0.73501  0.00000  1.0000
  C   C851      1.0  0.59834  0.93167  0.00000  1.0000
  C   C852      1.0  0.59834  0.73501  0.00000  1.0000
  C   C853      1.0  0.33333  0.73501  0.06834  1.0000
  C   C854      1.0  0.33333  0.73501  0.26501  1.0000
  C   C855      1.0  0.33333  0.93167  0.06834  1.0000
  C   C856      1.0  0.40167  0.83333  0.23501  1.0000
  C   C857      1.0  0.59834  0.83333  0.23501  1.0000
  C   C858      1.0  0.59834  0.83333  0.09834  1.0000
  C   C859      1.0  0.40167  0.90167  0.16667  1.0000
  C   C860      1.0  0.40167  0.76501  0.16667  1.0000
  C   C861      1.0  0.59834  0.90167  0.16667  1.0000
  C   C862      1.0  0.33333  0.90167  0.09834  1.0000
  C   C863      1.0  0.33333  0.76501  0.09834  1.0000
  C   C864      1.0  0.33333  0.76501  0.23501  1.0000
  C   C865      1.0  0.43167  0.66667  0.23501  1.0000
  C   C866      1.0  0.43167  0.66667  0.09834  1.0000
  C   C867      1.0  0.56834  0.66667  0.09834  1.0000
  C   C868      1.0  0.56834  0.93167  0.16667  1.0000
  C   C869      1.0  0.43167  0.93167  0.16667  1.0000
  C   C870      1.0  0.43167  0.73501  0.16667  1.0000
  C   C871      1.0  0.50000  0.73501  0.23501  1.0000
  C   C872      1.0  0.50000  0.93167  0.09834  1.0000
  C   C873      1.0  0.56834  0.83333  0.06834  1.0000
  C   C874      1.0  0.43167  0.83333  0.26501  1.0000
  C   C875      1.0  0.56834  0.83333  0.26501  1.0000
  C   C876      1.0  0.56834  0.90167  0.00000  1.0000
  C   C877      1.0  0.56834  0.76501  0.00000  1.0000
  C   C878      1.0  0.43167  0.76501  0.00000  1.0000
  C   C879      1.0  0.50000  0.90167  0.06834  1.0000
  C   C880      1.0  0.50000  0.76501  0.26501  1.0000
  C   C881      1.0  0.42250  0.66667  0.06147  1.0000
  C   C882      1.0  0.57750  0.66667  0.06147  1.0000
  C   C883      1.0  0.42250  0.66667  0.27187  1.0000
  C   C884      1.0  0.39480  0.75583  0.00000  1.0000
  C   C885      1.0  0.60520  0.91084  0.00000  1.0000
  C   C886      1.0  0.60520  0.75583  0.00000  1.0000
  C   C887      1.0  0.33333  0.72813  0.08916  1.0000
  C   C888      1.0  0.33333  0.72813  0.24417  1.0000
  C   C889      1.0  0.33333  0.93853  0.08916  1.0000
  C   C890      1.0  0.33333  0.75583  0.27187  1.0000
  C   C891      1.0  0.33333  0.91084  0.06147  1.0000
  C   C892      1.0  0.33333  0.75583  0.06147  1.0000
  C   C893      1.0  0.42250  0.72813  0.00000  1.0000
  C   C894      1.0  0.57750  0.72813  0.00000  1.0000
  C   C895      1.0  0.57750  0.93853  0.00000  1.0000
  C   C896      1.0  0.39480  0.66667  0.24417  1.0000
  C   C897      1.0  0.39480  0.66667  0.08916  1.0000
  C   C898      1.0  0.60520  0.66667  0.08916  1.0000
  C   C899      1.0  0.42250  0.83333  0.22813  1.0000
  C   C900      1.0  0.57750  0.83333  0.22813  1.0000
  C   C901      1.0  0.57750  0.83333  0.10520  1.0000
  C   C902      1.0  0.39480  0.92251  0.16667  1.0000
  C   C903      1.0  0.39480  0.74417  0.16667  1.0000
  C   C904      1.0  0.60520  0.92251  0.16667  1.0000
  C   C905      1.0  0.33333  0.89480  0.07750  1.0000
  C   C906      1.0  0.33333  0.77187  0.07750  1.0000
  C   C907      1.0  0.33333  0.77187  0.25585  1.0000
  C   C908      1.0  0.33333  0.92251  0.10520  1.0000
  C   C909      1.0  0.33333  0.74417  0.10520  1.0000
  C   C910      1.0  0.33333  0.74417  0.22813  1.0000
  C   C911      1.0  0.42250  0.89480  0.16667  1.0000
  C   C912      1.0  0.57750  0.89480  0.16667  1.0000
  C   C913      1.0  0.42250  0.77187  0.16667  1.0000
  C   C914      1.0  0.39480  0.83333  0.25585  1.0000
  C   C915      1.0  0.60520  0.83333  0.25585  1.0000
  C   C916      1.0  0.60520  0.83333  0.07750  1.0000
  C   C917      1.0  0.41084  0.66667  0.22813  1.0000
  C   C918      1.0  0.41084  0.66667  0.10520  1.0000
  C   C919      1.0  0.58918  0.66667  0.10520  1.0000
  C   C920      1.0  0.56147  0.91084  0.16667  1.0000
  C   C921      1.0  0.43853  0.91084  0.16667  1.0000
  C   C922      1.0  0.43853  0.75583  0.16667  1.0000
  C   C923      1.0  0.50000  0.72813  0.25585  1.0000
  C   C924      1.0  0.50000  0.93853  0.07750  1.0000
  C   C925      1.0  0.50000  0.91084  0.10520  1.0000
  C   C926      1.0  0.50000  0.75583  0.22813  1.0000
  C   C927      1.0  0.41084  0.72813  0.16667  1.0000
  C   C928      1.0  0.41084  0.93853  0.16667  1.0000
  C   C929      1.0  0.58918  0.93853  0.16667  1.0000
  C   C930      1.0  0.56147  0.66667  0.07750  1.0000
  C   C931      1.0  0.43853  0.66667  0.25585  1.0000
  C   C932      1.0  0.43853  0.66667  0.07750  1.0000
  C   C933      1.0  0.58918  0.83333  0.06147  1.0000
  C   C934      1.0  0.41084  0.83333  0.27187  1.0000
  C   C935      1.0  0.58918  0.83333  0.27187  1.0000
  C   C936      1.0  0.56147  0.92251  0.00000  1.0000
  C   C937      1.0  0.56147  0.74417  0.00000  1.0000
  C   C938      1.0  0.43853  0.74417  0.00000  1.0000
  C   C939      1.0  0.50000  0.89480  0.08916  1.0000
  C   C940      1.0  0.50000  0.77187  0.24417  1.0000
  C   C941      1.0  0.50000  0.74417  0.27187  1.0000
  C   C942      1.0  0.50000  0.92251  0.06147  1.0000
  C   C943      1.0  0.58918  0.89480  0.00000  1.0000
  C   C944      1.0  0.41084  0.77187  0.00000  1.0000
  C   C945      1.0  0.58918  0.77187  0.00000  1.0000
  C   C946      1.0  0.56147  0.83333  0.24417  1.0000
  C   C947      1.0  0.56147  0.83333  0.08916  1.0000
  C   C948      1.0  0.43853  0.83333  0.24417  1.0000
  H   H373      1.0  0.42634  0.66667  0.04530  1.0000
  H   H374      1.0  0.57366  0.66667  0.04530  1.0000
  H   H375      1.0  0.42634  0.66667  0.28804  1.0000
  H   H376      1.0  0.37863  0.75968  0.00000  1.0000
  H   H377      1.0  0.62137  0.90699  0.00000  1.0000
  H   H378      1.0  0.62137  0.75968  0.00000  1.0000
  H   H379      1.0  0.33333  0.71196  0.09301  1.0000
  H   H380      1.0  0.33333  0.71196  0.24032  1.0000
  H   H381      1.0  0.33333  0.95470  0.09301  1.0000
  H   H382      1.0  0.33333  0.75968  0.28804  1.0000
  H   H383      1.0  0.33333  0.90699  0.04530  1.0000
  H   H384      1.0  0.33333  0.75968  0.04530  1.0000
  H   H385      1.0  0.42634  0.71196  0.00000  1.0000
  H   H386      1.0  0.57366  0.71196  0.00000  1.0000
  H   H387      1.0  0.57366  0.95470  0.00000  1.0000
  H   H388      1.0  0.37863  0.66667  0.24032  1.0000
  H   H389      1.0  0.37863  0.66667  0.09301  1.0000
  H   H390      1.0  0.62137  0.66667  0.09301  1.0000
  H   H391      1.0  0.42634  0.83333  0.21196  1.0000
  H   H392      1.0  0.57366  0.83333  0.21196  1.0000
  H   H393      1.0  0.57366  0.83333  0.12137  1.0000
  H   H394      1.0  0.37863  0.92634  0.16667  1.0000
  H   H395      1.0  0.37863  0.74032  0.16667  1.0000
  H   H396      1.0  0.62137  0.92634  0.16667  1.0000
  H   H397      1.0  0.33333  0.87863  0.07366  1.0000
  H   H398      1.0  0.33333  0.78804  0.07366  1.0000
  H   H399      1.0  0.33333  0.78804  0.25968  1.0000
  H   H400      1.0  0.33333  0.92634  0.12137  1.0000
  H   H401      1.0  0.33333  0.74032  0.12137  1.0000
  H   H402      1.0  0.33333  0.74032  0.21196  1.0000
  H   H403      1.0  0.42634  0.87863  0.16667  1.0000
  H   H404      1.0  0.57366  0.87863  0.16667  1.0000
  H   H405      1.0  0.42634  0.78804  0.16667  1.0000
  H   H406      1.0  0.37863  0.83333  0.25968  1.0000
  H   H407      1.0  0.62137  0.83333  0.25968  1.0000
  H   H408      1.0  0.62137  0.83333  0.07366  1.0000
  H   H409      1.0  0.40699  0.66667  0.21196  1.0000
  H   H410      1.0  0.40699  0.66667  0.12137  1.0000
  H   H411      1.0  0.59301  0.66667  0.12137  1.0000
  H   H412      1.0  0.54530  0.90699  0.16667  1.0000
  H   H413      1.0  0.45470  0.90699  0.16667  1.0000
  H   H414      1.0  0.45470  0.75968  0.16667  1.0000
  H   H415      1.0  0.50000  0.71196  0.25968  1.0000
  H   H416      1.0  0.50000  0.95470  0.07366  1.0000
  H   H417      1.0  0.50000  0.90699  0.12137  1.0000
  H   H418      1.0  0.50000  0.75968  0.21196  1.0000
  H   H419      1.0  0.40699  0.71196  0.16667  1.0000
  H   H420      1.0  0.40699  0.95470  0.16667  1.0000
  H   H421      1.0  0.59301  0.95470  0.16667  1.0000
  H   H422      1.0  0.54530  0.66667  0.07366  1.0000
  H   H423      1.0  0.45470  0.66667  0.25968  1.0000
  H   H424      1.0  0.45470  0.66667  0.07366  1.0000
  H   H425      1.0  0.59301  0.83333  0.04530  1.0000
  H   H426      1.0  0.40699  0.83333  0.28804  1.0000
  H   H427      1.0  0.59301  0.83333  0.28804  1.0000
  H   H428      1.0  0.54530  0.92634  0.00000  1.0000
  H   H429      1.0  0.54530  0.74032  0.00000  1.0000
  H   H430      1.0  0.45470  0.74032  0.00000  1.0000
  H   H431      1.0  0.50000  0.87863  0.09301  1.0000
  H   H432      1.0  0.50000  0.78804  0.24032  1.0000
  H   H433      1.0  0.50000  0.74032  0.28804  1.0000
  H   H434      1.0  0.50000  0.92634  0.04530  1.0000
  H   H435      1.0  0.59301  0.87863  0.00000  1.0000
  H   H436      1.0  0.40699  0.78804  0.00000  1.0000
  H   H437      1.0  0.59301  0.78804  0.00000  1.0000
  H   H438      1.0  0.54530  0.83333  0.24032  1.0000
  H   H439      1.0  0.54530  0.83333  0.09301  1.0000
  H   H440      1.0  0.45470  0.83333  0.24032  1.0000
  Zr  Zr145     1.0  0.70663  0.00000  0.00000  1.0000
  Zr  Zr146     1.0  0.96005  0.00000  0.00000  1.0000
  Zr  Zr147     1.0  0.66667  0.03997  0.00000  1.0000
  Zr  Zr148     1.0  0.66667  0.29338  0.00000  1.0000
  Zr  Zr149     1.0  0.66667  0.00000  0.03997  1.0000
  Zr  Zr150     1.0  0.66667  0.00000  0.29338  1.0000
  Zr  Zr151     1.0  0.70663  0.16667  0.16667  1.0000
  Zr  Zr152     1.0  0.96005  0.16667  0.16667  1.0000
  Zr  Zr153     1.0  0.66667  0.20663  0.16667  1.0000
  Zr  Zr154     1.0  0.66667  0.12670  0.16667  1.0000
  Zr  Zr155     1.0  0.66667  0.16667  0.20663  1.0000
  Zr  Zr156     1.0  0.66667  0.16667  0.12670  1.0000
  Zr  Zr157     1.0  0.87330  0.00000  0.16667  1.0000
  Zr  Zr158     1.0  0.79337  0.00000  0.16667  1.0000
  Zr  Zr159     1.0  0.83333  0.03997  0.16667  1.0000
  Zr  Zr160     1.0  0.83333  0.29338  0.16667  1.0000
  Zr  Zr161     1.0  0.83333  0.00000  0.20663  1.0000
  Zr  Zr162     1.0  0.83333  0.00000  0.12670  1.0000
  Zr  Zr163     1.0  0.87330  0.16667  0.00000  1.0000
  Zr  Zr164     1.0  0.79337  0.16667  0.00000  1.0000
  Zr  Zr165     1.0  0.83333  0.20663  0.00000  1.0000
  Zr  Zr166     1.0  0.83333  0.12670  0.00000  1.0000
  Zr  Zr167     1.0  0.83333  0.16667  0.03997  1.0000
  Zr  Zr168     1.0  0.83333  0.16667  0.29338  1.0000
  O   O769      1.0  0.72349  0.00000  0.03177  1.0000
  O   O770      1.0  0.94319  0.00000  0.03177  1.0000
  O   O771      1.0  0.94319  0.00000  0.30158  1.0000
  O   O772      1.0  0.72349  0.00000  0.30158  1.0000
  O   O773      1.0  0.69844  0.05683  0.00000  1.0000
  O   O774      1.0  0.69844  0.27652  0.00000  1.0000
  O   O775      1.0  0.96824  0.27652  0.00000  1.0000
  O   O776      1.0  0.96824  0.05683  0.00000  1.0000
  O   O777      1.0  0.66667  0.03177  0.05683  1.0000
  O   O778      1.0  0.66667  0.03177  0.27652  1.0000
  O   O779      1.0  0.66667  0.30158  0.27652  1.0000
  O   O780      1.0  0.66667  0.30158  0.05683  1.0000
  O   O781      1.0  0.66667  0.05683  0.30158  1.0000
  O   O782      1.0  0.66667  0.27652  0.30158  1.0000
  O   O783      1.0  0.66667  0.27652  0.03177  1.0000
  O   O784      1.0  0.66667  0.05683  0.03177  1.0000
  O   O785      1.0  0.72349  0.03177  0.00000  1.0000
  O   O786      1.0  0.94319  0.03177  0.00000  1.0000
  O   O787      1.0  0.94319  0.30158  0.00000  1.0000
  O   O788      1.0  0.72349  0.30158  0.00000  1.0000
  O   O789      1.0  0.69844  0.00000  0.27652  1.0000
  O   O790      1.0  0.69844  0.00000  0.05683  1.0000
  O   O791      1.0  0.96824  0.00000  0.05683  1.0000
  O   O792      1.0  0.96824  0.00000  0.27652  1.0000
  O   O793      1.0  0.72349  0.16667  0.19844  1.0000
  O   O794      1.0  0.94319  0.16667  0.19844  1.0000
  O   O795      1.0  0.94319  0.16667  0.13490  1.0000
  O   O796      1.0  0.72349  0.16667  0.13490  1.0000
  O   O797      1.0  0.69844  0.22349  0.16667  1.0000
  O   O798      1.0  0.69844  0.10984  0.16667  1.0000
  O   O799      1.0  0.96824  0.10984  0.16667  1.0000
  O   O800      1.0  0.96824  0.22349  0.16667  1.0000
  O   O801      1.0  0.66667  0.19844  0.22349  1.0000
  O   O802      1.0  0.66667  0.19844  0.10984  1.0000
  O   O803      1.0  0.66667  0.13490  0.10984  1.0000
  O   O804      1.0  0.66667  0.13490  0.22349  1.0000
  O   O805      1.0  0.66667  0.22349  0.13490  1.0000
  O   O806      1.0  0.66667  0.10984  0.13490  1.0000
  O   O807      1.0  0.66667  0.10984  0.19844  1.0000
  O   O808      1.0  0.66667  0.22349  0.19844  1.0000
  O   O809      1.0  0.72349  0.19844  0.16667  1.0000
  O   O810      1.0  0.94319  0.19844  0.16667  1.0000
  O   O811      1.0  0.94319  0.13490  0.16667  1.0000
  O   O812      1.0  0.72349  0.13490  0.16667  1.0000
  O   O813      1.0  0.69844  0.16667  0.10984  1.0000
  O   O814      1.0  0.69844  0.16667  0.22349  1.0000
  O   O815      1.0  0.96824  0.16667  0.22349  1.0000
  O   O816      1.0  0.96824  0.16667  0.10984  1.0000
  O   O817      1.0  0.89016  0.00000  0.19844  1.0000
  O   O818      1.0  0.77651  0.00000  0.19844  1.0000
  O   O819      1.0  0.77651  0.00000  0.13490  1.0000
  O   O820      1.0  0.89016  0.00000  0.13490  1.0000
  O   O821      1.0  0.86510  0.05683  0.16667  1.0000
  O   O822      1.0  0.86510  0.27652  0.16667  1.0000
  O   O823      1.0  0.80156  0.27652  0.16667  1.0000
  O   O824      1.0  0.80156  0.05683  0.16667  1.0000
  O   O825      1.0  0.83333  0.03177  0.22349  1.0000
  O   O826      1.0  0.83333  0.03177  0.10984  1.0000
  O   O827      1.0  0.83333  0.30158  0.10984  1.0000
  O   O828      1.0  0.83333  0.30158  0.22349  1.0000
  O   O829      1.0  0.83333  0.05683  0.13490  1.0000
  O   O830      1.0  0.83333  0.27652  0.13490  1.0000
  O   O831      1.0  0.83333  0.27652  0.19844  1.0000
  O   O832      1.0  0.83333  0.05683  0.19844  1.0000
  O   O833      1.0  0.89016  0.03177  0.16667  1.0000
  O   O834      1.0  0.77651  0.03177  0.16667  1.0000
  O   O835      1.0  0.77651  0.30158  0.16667  1.0000
  O   O836      1.0  0.89016  0.30158  0.16667  1.0000
  O   O837      1.0  0.86510  0.00000  0.10984  1.0000
  O   O838      1.0  0.86510  0.00000  0.22349  1.0000
  O   O839      1.0  0.80156  0.00000  0.22349  1.0000
  O   O840      1.0  0.80156  0.00000  0.10984  1.0000
  O   O841      1.0  0.89016  0.16667  0.03177  1.0000
  O   O842      1.0  0.77651  0.16667  0.03177  1.0000
  O   O843      1.0  0.77651  0.16667  0.30158  1.0000
  O   O844      1.0  0.89016  0.16667  0.30158  1.0000
  O   O845      1.0  0.86510  0.22349  0.00000  1.0000
  O   O846      1.0  0.86510  0.10984  0.00000  1.0000
  O   O847      1.0  0.80156  0.10984  0.00000  1.0000
  O   O848      1.0  0.80156  0.22349  0.00000  1.0000
  O   O849      1.0  0.83333  0.19844  0.05683  1.0000
  O   O850      1.0  0.83333  0.19844  0.27652  1.0000
  O   O851      1.0  0.83333  0.13490  0.27652  1.0000
  O   O852      1.0  0.83333  0.13490  0.05683  1.0000
  O   O853      1.0  0.83333  0.22349  0.30158  1.0000
  O   O854      1.0  0.83333  0.10984  0.30158  1.0000
  O   O855      1.0  0.83333  0.10984  0.03177  1.0000
  O   O856      1.0  0.83333  0.22349  0.03177  1.0000
  O   O857      1.0  0.89016  0.19844  0.00000  1.0000
  O   O858      1.0  0.77651  0.19844  0.00000  1.0000
  O   O859      1.0  0.77651  0.13490  0.00000  1.0000
  O   O860      1.0  0.89016  0.13490  0.00000  1.0000
  O   O861      1.0  0.86510  0.16667  0.27652  1.0000
  O   O862      1.0  0.86510  0.16667  0.05683  1.0000
  O   O863      1.0  0.80156  0.16667  0.05683  1.0000
  O   O864      1.0  0.80156  0.16667  0.27652  1.0000
  O   O865      1.0  0.68536  0.31464  0.31464  1.0000
  O   O866      1.0  0.98130  0.01870  0.31464  1.0000
  O   O867      1.0  0.98130  0.31464  0.01870  1.0000
  O   O868      1.0  0.68536  0.01870  0.01870  1.0000
  O   O869      1.0  0.98130  0.01870  0.01870  1.0000
  O   O870      1.0  0.68536  0.31464  0.01870  1.0000
  O   O871      1.0  0.98130  0.31464  0.31464  1.0000
  O   O872      1.0  0.68536  0.01870  0.31464  1.0000
  O   O873      1.0  0.68536  0.14797  0.14797  1.0000
  O   O874      1.0  0.98130  0.18536  0.14797  1.0000
  O   O875      1.0  0.98130  0.14797  0.18536  1.0000
  O   O876      1.0  0.68536  0.18536  0.18536  1.0000
  O   O877      1.0  0.98130  0.18536  0.18536  1.0000
  O   O878      1.0  0.68536  0.14797  0.18536  1.0000
  O   O879      1.0  0.98130  0.14797  0.14797  1.0000
  O   O880      1.0  0.68536  0.18536  0.14797  1.0000
  O   O881      1.0  0.85203  0.31464  0.14797  1.0000
  O   O882      1.0  0.81464  0.01870  0.14797  1.0000
  O   O883      1.0  0.81464  0.31464  0.18536  1.0000
  O   O884      1.0  0.85203  0.01870  0.18536  1.0000
  O   O885      1.0  0.81464  0.01870  0.18536  1.0000
  O   O886      1.0  0.85203  0.31464  0.18536  1.0000
  O   O887      1.0  0.81464  0.31464  0.14797  1.0000
  O   O888      1.0  0.85203  0.01870  0.14797  1.0000
  O   O889      1.0  0.85203  0.14797  0.31464  1.0000
  O   O890      1.0  0.81464  0.18536  0.31464  1.0000
  O   O891      1.0  0.81464  0.14797  0.01870  1.0000
  O   O892      1.0  0.85203  0.18536  0.01870  1.0000
  O   O893      1.0  0.81464  0.18536  0.01870  1.0000
  O   O894      1.0  0.85203  0.14797  0.01870  1.0000
  O   O895      1.0  0.81464  0.14797  0.31464  1.0000
  O   O896      1.0  0.85203  0.18536  0.31464  1.0000
  C   C949      1.0  0.71787  0.00000  0.28214  1.0000
  C   C950      1.0  0.94881  0.00000  0.28214  1.0000
  C   C951      1.0  0.94881  0.00000  0.05121  1.0000
  C   C952      1.0  0.71787  0.00000  0.05121  1.0000
  C   C953      1.0  0.94881  0.05121  0.00000  1.0000
  C   C954      1.0  0.94881  0.28214  0.00000  1.0000
  C   C955      1.0  0.71787  0.28214  0.00000  1.0000
  C   C956      1.0  0.71787  0.05121  0.00000  1.0000
  C   C957      1.0  0.66667  0.28214  0.05121  1.0000
  C   C958      1.0  0.66667  0.28214  0.28214  1.0000
  C   C959      1.0  0.66667  0.05121  0.28214  1.0000
  C   C960      1.0  0.66667  0.05121  0.05121  1.0000
  C   C961      1.0  0.71787  0.16667  0.11548  1.0000
  C   C962      1.0  0.94881  0.16667  0.11548  1.0000
  C   C963      1.0  0.94881  0.16667  0.21787  1.0000
  C   C964      1.0  0.71787  0.16667  0.21787  1.0000
  C   C965      1.0  0.94881  0.21787  0.16667  1.0000
  C   C966      1.0  0.94881  0.11548  0.16667  1.0000
  C   C967      1.0  0.71787  0.11548  0.16667  1.0000
  C   C968      1.0  0.71787  0.21787  0.16667  1.0000
  C   C969      1.0  0.66667  0.11548  0.21787  1.0000
  C   C970      1.0  0.66667  0.11548  0.11548  1.0000
  C   C971      1.0  0.66667  0.21787  0.11548  1.0000
  C   C972      1.0  0.66667  0.21787  0.21787  1.0000
  C   C973      1.0  0.88454  0.00000  0.11548  1.0000
  C   C974      1.0  0.78214  0.00000  0.11548  1.0000
  C   C975      1.0  0.78214  0.00000  0.21787  1.0000
  C   C976      1.0  0.88454  0.00000  0.21787  1.0000
  C   C977      1.0  0.78214  0.05121  0.16667  1.0000
  C   C978      1.0  0.78214  0.28214  0.16667  1.0000
  C   C979      1.0  0.88454  0.28214  0.16667  1.0000
  C   C980      1.0  0.88454  0.05121  0.16667  1.0000
  C   C981      1.0  0.83333  0.28214  0.21787  1.0000
  C   C982      1.0  0.83333  0.28214  0.11548  1.0000
  C   C983      1.0  0.83333  0.05121  0.11548  1.0000
  C   C984      1.0  0.83333  0.05121  0.21787  1.0000
  C   C985      1.0  0.88454  0.16667  0.28214  1.0000
  C   C986      1.0  0.78214  0.16667  0.28214  1.0000
  C   C987      1.0  0.78214  0.16667  0.05121  1.0000
  C   C988      1.0  0.88454  0.16667  0.05121  1.0000
  C   C989      1.0  0.78214  0.21787  0.00000  1.0000
  C   C990      1.0  0.78214  0.11548  0.00000  1.0000
  C   C991      1.0  0.88454  0.11548  0.00000  1.0000
  C   C992      1.0  0.88454  0.21787  0.00000  1.0000
  C   C993      1.0  0.83333  0.11548  0.05121  1.0000
  C   C994      1.0  0.83333  0.11548  0.28214  1.0000
  C   C995      1.0  0.83333  0.21787  0.28214  1.0000
  C   C996      1.0  0.83333  0.21787  0.05121  1.0000
  C   C997      1.0  0.73501  0.00000  0.06834  1.0000
  C   C998      1.0  0.93167  0.00000  0.26501  1.0000
  C   C999      1.0  0.73501  0.00000  0.26501  1.0000
  C   C1000     1.0  0.73501  0.06834  0.00000  1.0000
  C   C1001     1.0  0.73501  0.26501  0.00000  1.0000
  C   C1002     1.0  0.93167  0.26501  0.00000  1.0000
  C   C1003     1.0  0.93167  0.06834  0.00000  1.0000
  C   C1004     1.0  0.66667  0.06834  0.06834  1.0000
  C   C1005     1.0  0.66667  0.06834  0.26501  1.0000
  C   C1006     1.0  0.66667  0.26501  0.26501  1.0000
  C   C1007     1.0  0.73501  0.16667  0.23501  1.0000
  C   C1008     1.0  0.73501  0.16667  0.09834  1.0000
  C   C1009     1.0  0.73501  0.23501  0.16667  1.0000
  C   C1010     1.0  0.93167  0.09834  0.16667  1.0000
  C   C1011     1.0  0.66667  0.23501  0.23501  1.0000
  C   C1012     1.0  0.66667  0.09834  0.09834  1.0000
  C   C1013     1.0  0.66667  0.09834  0.23501  1.0000
  C   C1014     1.0  0.90167  0.00000  0.23501  1.0000
  C   C1015     1.0  0.76501  0.00000  0.23501  1.0000
  C   C1016     1.0  0.76501  0.00000  0.09834  1.0000
  C   C1017     1.0  0.90167  0.06834  0.16667  1.0000
  C   C1018     1.0  0.76501  0.26501  0.16667  1.0000
  C   C1019     1.0  0.83333  0.06834  0.23501  1.0000
  C   C1020     1.0  0.83333  0.06834  0.09834  1.0000
  C   C1021     1.0  0.83333  0.26501  0.09834  1.0000
  C   C1022     1.0  0.76501  0.16667  0.06834  1.0000
  C   C1023     1.0  0.76501  0.16667  0.26501  1.0000
  C   C1024     1.0  0.90167  0.23501  0.00000  1.0000
  C   C1025     1.0  0.90167  0.09834  0.00000  1.0000
  C   C1026     1.0  0.76501  0.09834  0.00000  1.0000
  C   C1027     1.0  0.76501  0.23501  0.00000  1.0000
  C   C1028     1.0  0.83333  0.23501  0.06834  1.0000
  C   C1029     1.0  0.83333  0.09834  0.26501  1.0000
  C   C1030     1.0  0.83333  0.09834  0.06834  1.0000
  C   C1031     1.0  0.75583  0.00000  0.06147  1.0000
  C   C1032     1.0  0.91084  0.00000  0.27187  1.0000
  C   C1033     1.0  0.75583  0.00000  0.27187  1.0000
  C   C1034     1.0  0.72813  0.08916  0.00000  1.0000
  C   C1035     1.0  0.72813  0.24417  0.00000  1.0000
  C   C1036     1.0  0.93853  0.24417  0.00000  1.0000
  C   C1037     1.0  0.93853  0.08916  0.00000  1.0000
  C   C1038     1.0  0.66667  0.06147  0.08916  1.0000
  C   C1039     1.0  0.66667  0.06147  0.24417  1.0000
  C   C1040     1.0  0.66667  0.27187  0.24417  1.0000
  C   C1041     1.0  0.66667  0.08916  0.27187  1.0000
  C   C1042     1.0  0.66667  0.24417  0.27187  1.0000
  C   C1043     1.0  0.66667  0.08916  0.06147  1.0000
  C   C1044     1.0  0.75583  0.06147  0.00000  1.0000
  C   C1045     1.0  0.91084  0.06147  0.00000  1.0000
  C   C1046     1.0  0.91084  0.27187  0.00000  1.0000
  C   C1047     1.0  0.75583  0.27187  0.00000  1.0000
  C   C1048     1.0  0.72813  0.00000  0.24417  1.0000
  C   C1049     1.0  0.72813  0.00000  0.08916  1.0000
  C   C1050     1.0  0.93853  0.00000  0.24417  1.0000
  C   C1051     1.0  0.75583  0.16667  0.22813  1.0000
  C   C1052     1.0  0.75583  0.16667  0.10520  1.0000
  C   C1053     1.0  0.72813  0.25585  0.16667  1.0000
  C   C1054     1.0  0.93853  0.07750  0.16667  1.0000
  C   C1055     1.0  0.66667  0.22813  0.25585  1.0000
  C   C1056     1.0  0.66667  0.10520  0.07750  1.0000
  C   C1057     1.0  0.66667  0.10520  0.25585  1.0000
  C   C1058     1.0  0.66667  0.07750  0.10520  1.0000
  C   C1059     1.0  0.66667  0.07750  0.22813  1.0000
  C   C1060     1.0  0.66667  0.25585  0.22813  1.0000
  C   C1061     1.0  0.75583  0.22813  0.16667  1.0000
  C   C1062     1.0  0.91084  0.10520  0.16667  1.0000
  C   C1063     1.0  0.72813  0.16667  0.07750  1.0000
  C   C1064     1.0  0.72813  0.16667  0.25585  1.0000
  C   C1065     1.0  0.92251  0.00000  0.22813  1.0000
  C   C1066     1.0  0.74417  0.00000  0.22813  1.0000
  C   C1067     1.0  0.74417  0.00000  0.10520  1.0000
  C   C1068     1.0  0.89480  0.08916  0.16667  1.0000
  C   C1069     1.0  0.77187  0.24417  0.16667  1.0000
  C   C1070     1.0  0.83333  0.06147  0.25585  1.0000
  C   C1071     1.0  0.83333  0.06147  0.07750  1.0000
  C   C1072     1.0  0.83333  0.27187  0.07750  1.0000
  C   C1073     1.0  0.83333  0.08916  0.10520  1.0000
  C   C1074     1.0  0.83333  0.24417  0.10520  1.0000
  C   C1075     1.0  0.83333  0.08916  0.22813  1.0000
  C   C1076     1.0  0.92251  0.06147  0.16667  1.0000
  C   C1077     1.0  0.74417  0.27187  0.16667  1.0000
  C   C1078     1.0  0.89480  0.00000  0.25585  1.0000
  C   C1079     1.0  0.77187  0.00000  0.25585  1.0000
  C   C1080     1.0  0.77187  0.00000  0.07750  1.0000
  C   C1081     1.0  0.74417  0.16667  0.06147  1.0000
  C   C1082     1.0  0.74417  0.16667  0.27187  1.0000
  C   C1083     1.0  0.89480  0.25585  0.00000  1.0000
  C   C1084     1.0  0.89480  0.07750  0.00000  1.0000
  C   C1085     1.0  0.77187  0.07750  0.00000  1.0000
  C   C1086     1.0  0.77187  0.25585  0.00000  1.0000
  C   C1087     1.0  0.83333  0.22813  0.08916  1.0000
  C   C1088     1.0  0.83333  0.10520  0.24417  1.0000
  C   C1089     1.0  0.83333  0.10520  0.08916  1.0000
  C   C1090     1.0  0.83333  0.07750  0.27187  1.0000
  C   C1091     1.0  0.83333  0.07750  0.06147  1.0000
  C   C1092     1.0  0.83333  0.25585  0.06147  1.0000
  C   C1093     1.0  0.92251  0.22813  0.00000  1.0000
  C   C1094     1.0  0.74417  0.22813  0.00000  1.0000
  C   C1095     1.0  0.74417  0.10520  0.00000  1.0000
  C   C1096     1.0  0.92251  0.10520  0.00000  1.0000
  C   C1097     1.0  0.77187  0.16667  0.08916  1.0000
  C   C1098     1.0  0.77187  0.16667  0.24417  1.0000
  H   H441      1.0  0.75968  0.00000  0.04530  1.0000
  H   H442      1.0  0.90699  0.00000  0.28804  1.0000
  H   H443      1.0  0.75968  0.00000  0.28804  1.0000
  H   H444      1.0  0.71196  0.09301  0.00000  1.0000
  H   H445      1.0  0.71196  0.24032  0.00000  1.0000
  H   H446      1.0  0.95470  0.24032  0.00000  1.0000
  H   H447      1.0  0.95470  0.09301  0.00000  1.0000
  H   H448      1.0  0.66667  0.04530  0.09301  1.0000
  H   H449      1.0  0.66667  0.04530  0.24032  1.0000
  H   H450      1.0  0.66667  0.28804  0.24032  1.0000
  H   H451      1.0  0.66667  0.09301  0.28804  1.0000
  H   H452      1.0  0.66667  0.24032  0.28804  1.0000
  H   H453      1.0  0.66667  0.09301  0.04530  1.0000
  H   H454      1.0  0.75968  0.04530  0.00000  1.0000
  H   H455      1.0  0.90699  0.04530  0.00000  1.0000
  H   H456      1.0  0.90699  0.28804  0.00000  1.0000
  H   H457      1.0  0.75968  0.28804  0.00000  1.0000
  H   H458      1.0  0.71196  0.00000  0.24032  1.0000
  H   H459      1.0  0.71196  0.00000  0.09301  1.0000
  H   H460      1.0  0.95470  0.00000  0.24032  1.0000
  H   H461      1.0  0.75968  0.16667  0.21196  1.0000
  H   H462      1.0  0.75968  0.16667  0.12137  1.0000
  H   H463      1.0  0.71196  0.25968  0.16667  1.0000
  H   H464      1.0  0.95470  0.07366  0.16667  1.0000
  H   H465      1.0  0.66667  0.21196  0.25968  1.0000
  H   H466      1.0  0.66667  0.12137  0.07366  1.0000
  H   H467      1.0  0.66667  0.12137  0.25968  1.0000
  H   H468      1.0  0.66667  0.07366  0.12137  1.0000
  H   H469      1.0  0.66667  0.07366  0.21196  1.0000
  H   H470      1.0  0.66667  0.25968  0.21196  1.0000
  H   H471      1.0  0.75968  0.21196  0.16667  1.0000
  H   H472      1.0  0.90699  0.12137  0.16667  1.0000
  H   H473      1.0  0.71196  0.16667  0.07366  1.0000
  H   H474      1.0  0.71196  0.16667  0.25968  1.0000
  H   H475      1.0  0.92634  0.00000  0.21196  1.0000
  H   H476      1.0  0.74032  0.00000  0.21196  1.0000
  H   H477      1.0  0.74032  0.00000  0.12137  1.0000
  H   H478      1.0  0.87863  0.09301  0.16667  1.0000
  H   H479      1.0  0.78804  0.24032  0.16667  1.0000
  H   H480      1.0  0.83333  0.04530  0.25968  1.0000
  H   H481      1.0  0.83333  0.04530  0.07366  1.0000
  H   H482      1.0  0.83333  0.28804  0.07366  1.0000
  H   H483      1.0  0.83333  0.09301  0.12137  1.0000
  H   H484      1.0  0.83333  0.24032  0.12137  1.0000
  H   H485      1.0  0.83333  0.09301  0.21196  1.0000
  H   H486      1.0  0.92634  0.04530  0.16667  1.0000
  H   H487      1.0  0.74032  0.28804  0.16667  1.0000
  H   H488      1.0  0.87863  0.00000  0.25968  1.0000
  H   H489      1.0  0.78804  0.00000  0.25968  1.0000
  H   H490      1.0  0.78804  0.00000  0.07366  1.0000
  H   H491      1.0  0.74032  0.16667  0.04530  1.0000
  H   H492      1.0  0.74032  0.16667  0.28804  1.0000
  H   H493      1.0  0.87863  0.25968  0.00000  1.0000
  H   H494      1.0  0.87863  0.07366  0.00000  1.0000
  H   H495      1.0  0.78804  0.07366  0.00000  1.0000
  H   H496      1.0  0.78804  0.25968  0.00000  1.0000
  H   H497      1.0  0.83333  0.21196  0.09301  1.0000
  H   H498      1.0  0.83333  0.12137  0.24032  1.0000
  H   H499      1.0  0.83333  0.12137  0.09301  1.0000
  H   H500      1.0  0.83333  0.07366  0.28804  1.0000
  H   H501      1.0  0.83333  0.07366  0.04530  1.0000
  H   H502      1.0  0.83333  0.25968  0.04530  1.0000
  H   H503      1.0  0.92634  0.21196  0.00000  1.0000
  H   H504      1.0  0.74032  0.21196  0.00000  1.0000
  H   H505      1.0  0.74032  0.12137  0.00000  1.0000
  H   H506      1.0  0.92634  0.12137  0.00000  1.0000
  H   H507      1.0  0.78804  0.16667  0.09301  1.0000
  H   H508      1.0  0.78804  0.16667  0.24032  1.0000
  Zr  Zr169     1.0  0.70663  0.33333  0.00000  1.0000
  Zr  Zr170     1.0  0.96005  0.33333  0.00000  1.0000
  Zr  Zr171     1.0  0.66667  0.37330  0.00000  1.0000
  Zr  Zr172     1.0  0.66667  0.62671  0.00000  1.0000
  Zr  Zr173     1.0  0.66667  0.33333  0.03997  1.0000
  Zr  Zr174     1.0  0.66667  0.33333  0.29338  1.0000
  Zr  Zr175     1.0  0.70663  0.50000  0.16667  1.0000
  Zr  Zr176     1.0  0.96005  0.50000  0.16667  1.0000
  Zr  Zr177     1.0  0.66667  0.53997  0.16667  1.0000
  Zr  Zr178     1.0  0.66667  0.46003  0.16667  1.0000
  Zr  Zr179     1.0  0.66667  0.50000  0.20663  1.0000
  Zr  Zr180     1.0  0.66667  0.50000  0.12670  1.0000
  Zr  Zr181     1.0  0.87330  0.33333  0.16667  1.0000
  Zr  Zr182     1.0  0.79337  0.33333  0.16667  1.0000
  Zr  Zr183     1.0  0.83333  0.37330  0.16667  1.0000
  Zr  Zr184     1.0  0.83333  0.62671  0.16667  1.0000
  Zr  Zr185     1.0  0.83333  0.33333  0.20663  1.0000
  Zr  Zr186     1.0  0.83333  0.33333  0.12670  1.0000
  Zr  Zr187     1.0  0.87330  0.50000  0.00000  1.0000
  Zr  Zr188     1.0  0.79337  0.50000  0.00000  1.0000
  Zr  Zr189     1.0  0.83333  0.53997  0.00000  1.0000
  Zr  Zr190     1.0  0.83333  0.46003  0.00000  1.0000
  Zr  Zr191     1.0  0.83333  0.50000  0.03997  1.0000
  Zr  Zr192     1.0  0.83333  0.50000  0.29338  1.0000
  O   O897      1.0  0.72349  0.33333  0.03177  1.0000
  O   O898      1.0  0.94319  0.33333  0.03177  1.0000
  O   O899      1.0  0.94319  0.33333  0.30158  1.0000
  O   O900      1.0  0.72349  0.33333  0.30158  1.0000
  O   O901      1.0  0.69844  0.39016  0.00000  1.0000
  O   O902      1.0  0.69844  0.60986  0.00000  1.0000
  O   O903      1.0  0.96824  0.60986  0.00000  1.0000
  O   O904      1.0  0.96824  0.39016  0.00000  1.0000
  O   O905      1.0  0.66667  0.36510  0.05683  1.0000
  O   O906      1.0  0.66667  0.36510  0.27652  1.0000
  O   O907      1.0  0.66667  0.63491  0.27652  1.0000
  O   O908      1.0  0.66667  0.63491  0.05683  1.0000
  O   O909      1.0  0.66667  0.39016  0.30158  1.0000
  O   O910      1.0  0.66667  0.60986  0.30158  1.0000
  O   O911      1.0  0.66667  0.60986  0.03177  1.0000
  O   O912      1.0  0.66667  0.39016  0.03177  1.0000
  O   O913      1.0  0.72349  0.36510  0.00000  1.0000
  O   O914      1.0  0.94319  0.36510  0.00000  1.0000
  O   O915      1.0  0.94319  0.63491  0.00000  1.0000
  O   O916      1.0  0.72349  0.63491  0.00000  1.0000
  O   O917      1.0  0.69844  0.33333  0.27652  1.0000
  O   O918      1.0  0.69844  0.33333  0.05683  1.0000
  O   O919      1.0  0.96824  0.33333  0.05683  1.0000
  O   O920      1.0  0.96824  0.33333  0.27652  1.0000
  O   O921      1.0  0.72349  0.50000  0.19844  1.0000
  O   O922      1.0  0.94319  0.50000  0.19844  1.0000
  O   O923      1.0  0.94319  0.50000  0.13490  1.0000
  O   O924      1.0  0.72349  0.50000  0.13490  1.0000
  O   O925      1.0  0.69844  0.55683  0.16667  1.0000
  O   O926      1.0  0.69844  0.44317  0.16667  1.0000
  O   O927      1.0  0.96824  0.44317  0.16667  1.0000
  O   O928      1.0  0.96824  0.55683  0.16667  1.0000
  O   O929      1.0  0.66667  0.53177  0.22349  1.0000
  O   O930      1.0  0.66667  0.53177  0.10984  1.0000
  O   O931      1.0  0.66667  0.46823  0.10984  1.0000
  O   O932      1.0  0.66667  0.46823  0.22349  1.0000
  O   O933      1.0  0.66667  0.55683  0.13490  1.0000
  O   O934      1.0  0.66667  0.44317  0.13490  1.0000
  O   O935      1.0  0.66667  0.44317  0.19844  1.0000
  O   O936      1.0  0.66667  0.55683  0.19844  1.0000
  O   O937      1.0  0.72349  0.53177  0.16667  1.0000
  O   O938      1.0  0.94319  0.53177  0.16667  1.0000
  O   O939      1.0  0.94319  0.46823  0.16667  1.0000
  O   O940      1.0  0.72349  0.46823  0.16667  1.0000
  O   O941      1.0  0.69844  0.50000  0.10984  1.0000
  O   O942      1.0  0.69844  0.50000  0.22349  1.0000
  O   O943      1.0  0.96824  0.50000  0.22349  1.0000
  O   O944      1.0  0.96824  0.50000  0.10984  1.0000
  O   O945      1.0  0.89016  0.33333  0.19844  1.0000
  O   O946      1.0  0.77651  0.33333  0.19844  1.0000
  O   O947      1.0  0.77651  0.33333  0.13490  1.0000
  O   O948      1.0  0.89016  0.33333  0.13490  1.0000
  O   O949      1.0  0.86510  0.39016  0.16667  1.0000
  O   O950      1.0  0.86510  0.60986  0.16667  1.0000
  O   O951      1.0  0.80156  0.60986  0.16667  1.0000
  O   O952      1.0  0.80156  0.39016  0.16667  1.0000
  O   O953      1.0  0.83333  0.36510  0.22349  1.0000
  O   O954      1.0  0.83333  0.36510  0.10984  1.0000
  O   O955      1.0  0.83333  0.63491  0.10984  1.0000
  O   O956      1.0  0.83333  0.63491  0.22349  1.0000
  O   O957      1.0  0.83333  0.39016  0.13490  1.0000
  O   O958      1.0  0.83333  0.60986  0.13490  1.0000
  O   O959      1.0  0.83333  0.60986  0.19844  1.0000
  O   O960      1.0  0.83333  0.39016  0.19844  1.0000
  O   O961      1.0  0.89016  0.36510  0.16667  1.0000
  O   O962      1.0  0.77651  0.36510  0.16667  1.0000
  O   O963      1.0  0.77651  0.63491  0.16667  1.0000
  O   O964      1.0  0.89016  0.63491  0.16667  1.0000
  O   O965      1.0  0.86510  0.33333  0.10984  1.0000
  O   O966      1.0  0.86510  0.33333  0.22349  1.0000
  O   O967      1.0  0.80156  0.33333  0.22349  1.0000
  O   O968      1.0  0.80156  0.33333  0.10984  1.0000
  O   O969      1.0  0.89016  0.50000  0.03177  1.0000
  O   O970      1.0  0.77651  0.50000  0.03177  1.0000
  O   O971      1.0  0.77651  0.50000  0.30158  1.0000
  O   O972      1.0  0.89016  0.50000  0.30158  1.0000
  O   O973      1.0  0.86510  0.55683  0.00000  1.0000
  O   O974      1.0  0.86510  0.44317  0.00000  1.0000
  O   O975      1.0  0.80156  0.44317  0.00000  1.0000
  O   O976      1.0  0.80156  0.55683  0.00000  1.0000
  O   O977      1.0  0.83333  0.53177  0.05683  1.0000
  O   O978      1.0  0.83333  0.53177  0.27652  1.0000
  O   O979      1.0  0.83333  0.46823  0.27652  1.0000
  O   O980      1.0  0.83333  0.46823  0.05683  1.0000
  O   O981      1.0  0.83333  0.55683  0.30158  1.0000
  O   O982      1.0  0.83333  0.44317  0.30158  1.0000
  O   O983      1.0  0.83333  0.44317  0.03177  1.0000
  O   O984      1.0  0.83333  0.55683  0.03177  1.0000
  O   O985      1.0  0.89016  0.53177  0.00000  1.0000
  O   O986      1.0  0.77651  0.53177  0.00000  1.0000
  O   O987      1.0  0.77651  0.46823  0.00000  1.0000
  O   O988      1.0  0.89016  0.46823  0.00000  1.0000
  O   O989      1.0  0.86510  0.50000  0.27652  1.0000
  O   O990      1.0  0.86510  0.50000  0.05683  1.0000
  O   O991      1.0  0.80156  0.50000  0.05683  1.0000
  O   O992      1.0  0.80156  0.50000  0.27652  1.0000
  O   O993      1.0  0.68536  0.64797  0.31464  1.0000
  O   O994      1.0  0.98130  0.35203  0.31464  1.0000
  O   O995      1.0  0.98130  0.64797  0.01870  1.0000
  O   O996      1.0  0.68536  0.35203  0.01870  1.0000
  O   O997      1.0  0.98130  0.35203  0.01870  1.0000
  O   O998      1.0  0.68536  0.64797  0.01870  1.0000
  O   O999      1.0  0.98130  0.64797  0.31464  1.0000
  O   O1000     1.0  0.68536  0.35203  0.31464  1.0000
  O   O1001     1.0  0.68536  0.48130  0.14797  1.0000
  O   O1002     1.0  0.98130  0.51870  0.14797  1.0000
  O   O1003     1.0  0.98130  0.48130  0.18536  1.0000
  O   O1004     1.0  0.68536  0.51870  0.18536  1.0000
  O   O1005     1.0  0.98130  0.51870  0.18536  1.0000
  O   O1006     1.0  0.68536  0.48130  0.18536  1.0000
  O   O1007     1.0  0.98130  0.48130  0.14797  1.0000
  O   O1008     1.0  0.68536  0.51870  0.14797  1.0000
  O   O1009     1.0  0.85203  0.64797  0.14797  1.0000
  O   O1010     1.0  0.81464  0.35203  0.14797  1.0000
  O   O1011     1.0  0.81464  0.64797  0.18536  1.0000
  O   O1012     1.0  0.85203  0.35203  0.18536  1.0000
  O   O1013     1.0  0.81464  0.35203  0.18536  1.0000
  O   O1014     1.0  0.85203  0.64797  0.18536  1.0000
  O   O1015     1.0  0.81464  0.64797  0.14797  1.0000
  O   O1016     1.0  0.85203  0.35203  0.14797  1.0000
  O   O1017     1.0  0.85203  0.48130  0.31464  1.0000
  O   O1018     1.0  0.81464  0.51870  0.31464  1.0000
  O   O1019     1.0  0.81464  0.48130  0.01870  1.0000
  O   O1020     1.0  0.85203  0.51870  0.01870  1.0000
  O   O1021     1.0  0.81464  0.51870  0.01870  1.0000
  O   O1022     1.0  0.85203  0.48130  0.01870  1.0000
  O   O1023     1.0  0.81464  0.48130  0.31464  1.0000
  O   O1024     1.0  0.85203  0.51870  0.31464  1.0000
  C   C1099     1.0  0.71787  0.33333  0.28214  1.0000
  C   C1100     1.0  0.94881  0.33333  0.28214  1.0000
  C   C1101     1.0  0.94881  0.33333  0.05121  1.0000
  C   C1102     1.0  0.71787  0.33333  0.05121  1.0000
  C   C1103     1.0  0.94881  0.38454  0.00000  1.0000
  C   C1104     1.0  0.94881  0.61548  0.00000  1.0000
  C   C1105     1.0  0.71787  0.61548  0.00000  1.0000
  C   C1106     1.0  0.71787  0.38454  0.00000  1.0000
  C   C1107     1.0  0.66667  0.61548  0.05121  1.0000
  C   C1108     1.0  0.66667  0.61548  0.28214  1.0000
  C   C1109     1.0  0.66667  0.38454  0.28214  1.0000
  C   C1110     1.0  0.66667  0.38454  0.05121  1.0000
  C   C1111     1.0  0.71787  0.50000  0.11548  1.0000
  C   C1112     1.0  0.94881  0.50000  0.11548  1.0000
  C   C1113     1.0  0.94881  0.50000  0.21787  1.0000
  C   C1114     1.0  0.71787  0.50000  0.21787  1.0000
  C   C1115     1.0  0.94881  0.55121  0.16667  1.0000
  C   C1116     1.0  0.94881  0.44881  0.16667  1.0000
  C   C1117     1.0  0.71787  0.44881  0.16667  1.0000
  C   C1118     1.0  0.71787  0.55121  0.16667  1.0000
  C   C1119     1.0  0.66667  0.44881  0.21787  1.0000
  C   C1120     1.0  0.66667  0.44881  0.11548  1.0000
  C   C1121     1.0  0.66667  0.55121  0.11548  1.0000
  C   C1122     1.0  0.66667  0.55121  0.21787  1.0000
  C   C1123     1.0  0.88454  0.33333  0.11548  1.0000
  C   C1124     1.0  0.78214  0.33333  0.11548  1.0000
  C   C1125     1.0  0.78214  0.33333  0.21787  1.0000
  C   C1126     1.0  0.88454  0.33333  0.21787  1.0000
  C   C1127     1.0  0.78214  0.38454  0.16667  1.0000
  C   C1128     1.0  0.78214  0.61548  0.16667  1.0000
  C   C1129     1.0  0.88454  0.61548  0.16667  1.0000
  C   C1130     1.0  0.88454  0.38454  0.16667  1.0000
  C   C1131     1.0  0.83333  0.61548  0.21787  1.0000
  C   C1132     1.0  0.83333  0.61548  0.11548  1.0000
  C   C1133     1.0  0.83333  0.38454  0.11548  1.0000
  C   C1134     1.0  0.83333  0.38454  0.21787  1.0000
  C   C1135     1.0  0.88454  0.50000  0.28214  1.0000
  C   C1136     1.0  0.78214  0.50000  0.28214  1.0000
  C   C1137     1.0  0.78214  0.50000  0.05121  1.0000
  C   C1138     1.0  0.88454  0.50000  0.05121  1.0000
  C   C1139     1.0  0.78214  0.55121  0.00000  1.0000
  C   C1140     1.0  0.78214  0.44881  0.00000  1.0000
  C   C1141     1.0  0.88454  0.44881  0.00000  1.0000
  C   C1142     1.0  0.88454  0.55121  0.00000  1.0000
  C   C1143     1.0  0.83333  0.44881  0.05121  1.0000
  C   C1144     1.0  0.83333  0.44881  0.28214  1.0000
  C   C1145     1.0  0.83333  0.55121  0.28214  1.0000
  C   C1146     1.0  0.83333  0.55121  0.05121  1.0000
  C   C1147     1.0  0.73501  0.33333  0.06834  1.0000
  C   C1148     1.0  0.93167  0.33333  0.06834  1.0000
  C   C1149     1.0  0.93167  0.33333  0.26501  1.0000
  C   C1150     1.0  0.73501  0.33333  0.26501  1.0000
  C   C1151     1.0  0.73501  0.40167  0.00000  1.0000
  C   C1152     1.0  0.73501  0.59834  0.00000  1.0000
  C   C1153     1.0  0.93167  0.59834  0.00000  1.0000
  C   C1154     1.0  0.93167  0.40167  0.00000  1.0000
  C   C1155     1.0  0.66667  0.40167  0.06834  1.0000
  C   C1156     1.0  0.66667  0.40167  0.26501  1.0000
  C   C1157     1.0  0.66667  0.59834  0.26501  1.0000
  C   C1158     1.0  0.93167  0.50000  0.09834  1.0000
  C   C1159     1.0  0.73501  0.56834  0.16667  1.0000
  C   C1160     1.0  0.73501  0.43167  0.16667  1.0000
  C   C1161     1.0  0.93167  0.43167  0.16667  1.0000
  C   C1162     1.0  0.93167  0.56834  0.16667  1.0000
  C   C1163     1.0  0.66667  0.56834  0.23501  1.0000
  C   C1164     1.0  0.66667  0.43167  0.09834  1.0000
  C   C1165     1.0  0.66667  0.43167  0.23501  1.0000
  C   C1166     1.0  0.90167  0.33333  0.23501  1.0000
  C   C1167     1.0  0.76501  0.33333  0.23501  1.0000
  C   C1168     1.0  0.76501  0.33333  0.09834  1.0000
  C   C1169     1.0  0.90167  0.33333  0.09834  1.0000
  C   C1170     1.0  0.90167  0.40167  0.16667  1.0000
  C   C1171     1.0  0.90167  0.59834  0.16667  1.0000
  C   C1172     1.0  0.76501  0.59834  0.16667  1.0000
  C   C1173     1.0  0.76501  0.40167  0.16667  1.0000
  C   C1174     1.0  0.83333  0.40167  0.23501  1.0000
  C   C1175     1.0  0.83333  0.40167  0.09834  1.0000
  C   C1176     1.0  0.83333  0.59834  0.09834  1.0000
  C   C1177     1.0  0.83333  0.59834  0.23501  1.0000
  C   C1178     1.0  0.90167  0.50000  0.06834  1.0000
  C   C1179     1.0  0.90167  0.56834  0.00000  1.0000
  C   C1180     1.0  0.90167  0.43167  0.00000  1.0000
  C   C1181     1.0  0.76501  0.43167  0.00000  1.0000
  C   C1182     1.0  0.76501  0.56834  0.00000  1.0000
  C   C1183     1.0  0.83333  0.56834  0.06834  1.0000
  C   C1184     1.0  0.83333  0.56834  0.26501  1.0000
  C   C1185     1.0  0.83333  0.43167  0.26501  1.0000
  C   C1186     1.0  0.83333  0.43167  0.06834  1.0000
  C   C1187     1.0  0.75583  0.33333  0.06147  1.0000
  C   C1188     1.0  0.91084  0.33333  0.06147  1.0000
  C   C1189     1.0  0.91084  0.33333  0.27187  1.0000
  C   C1190     1.0  0.75583  0.33333  0.27187  1.0000
  C   C1191     1.0  0.72813  0.42250  0.00000  1.0000
  C   C1192     1.0  0.72813  0.57750  0.00000  1.0000
  C   C1193     1.0  0.93853  0.57750  0.00000  1.0000
  C   C1194     1.0  0.93853  0.42250  0.00000  1.0000
  C   C1195     1.0  0.66667  0.39480  0.08916  1.0000
  C   C1196     1.0  0.66667  0.39480  0.24417  1.0000
  C   C1197     1.0  0.66667  0.60520  0.24417  1.0000
  C   C1198     1.0  0.66667  0.42250  0.27187  1.0000
  C   C1199     1.0  0.66667  0.57750  0.27187  1.0000
  C   C1200     1.0  0.66667  0.42250  0.06147  1.0000
  C   C1201     1.0  0.75583  0.39480  0.00000  1.0000
  C   C1202     1.0  0.91084  0.39480  0.00000  1.0000
  C   C1203     1.0  0.91084  0.60520  0.00000  1.0000
  C   C1204     1.0  0.75583  0.60520  0.00000  1.0000
  C   C1205     1.0  0.72813  0.33333  0.24417  1.0000
  C   C1206     1.0  0.72813  0.33333  0.08916  1.0000
  C   C1207     1.0  0.93853  0.33333  0.08916  1.0000
  C   C1208     1.0  0.93853  0.33333  0.24417  1.0000
  C   C1209     1.0  0.91084  0.50000  0.10520  1.0000
  C   C1210     1.0  0.72813  0.58918  0.16667  1.0000
  C   C1211     1.0  0.72813  0.41084  0.16667  1.0000
  C   C1212     1.0  0.93853  0.41084  0.16667  1.0000
  C   C1213     1.0  0.93853  0.58918  0.16667  1.0000
  C   C1214     1.0  0.66667  0.56147  0.25585  1.0000
  C   C1215     1.0  0.66667  0.43853  0.07750  1.0000
  C   C1216     1.0  0.66667  0.43853  0.25585  1.0000
  C   C1217     1.0  0.66667  0.41084  0.10520  1.0000
  C   C1218     1.0  0.66667  0.41084  0.22813  1.0000
  C   C1219     1.0  0.66667  0.58918  0.22813  1.0000
  C   C1220     1.0  0.75583  0.56147  0.16667  1.0000
  C   C1221     1.0  0.91084  0.56147  0.16667  1.0000
  C   C1222     1.0  0.91084  0.43853  0.16667  1.0000
  C   C1223     1.0  0.75583  0.43853  0.16667  1.0000
  C   C1224     1.0  0.93853  0.50000  0.07750  1.0000
  C   C1225     1.0  0.92251  0.33333  0.22813  1.0000
  C   C1226     1.0  0.74417  0.33333  0.22813  1.0000
  C   C1227     1.0  0.74417  0.33333  0.10520  1.0000
  C   C1228     1.0  0.92251  0.33333  0.10520  1.0000
  C   C1229     1.0  0.89480  0.42250  0.16667  1.0000
  C   C1230     1.0  0.89480  0.57750  0.16667  1.0000
  C   C1231     1.0  0.77187  0.57750  0.16667  1.0000
  C   C1232     1.0  0.77187  0.42250  0.16667  1.0000
  C   C1233     1.0  0.83333  0.39480  0.25585  1.0000
  C   C1234     1.0  0.83333  0.39480  0.07750  1.0000
  C   C1235     1.0  0.83333  0.60520  0.07750  1.0000
  C   C1236     1.0  0.83333  0.60520  0.25585  1.0000
  C   C1237     1.0  0.83333  0.42250  0.10520  1.0000
  C   C1238     1.0  0.83333  0.57750  0.10520  1.0000
  C   C1239     1.0  0.83333  0.57750  0.22813  1.0000
  C   C1240     1.0  0.83333  0.42250  0.22813  1.0000
  C   C1241     1.0  0.92251  0.39480  0.16667  1.0000
  C   C1242     1.0  0.74417  0.39480  0.16667  1.0000
  C   C1243     1.0  0.74417  0.60520  0.16667  1.0000
  C   C1244     1.0  0.92251  0.60520  0.16667  1.0000
  C   C1245     1.0  0.89480  0.33333  0.07750  1.0000
  C   C1246     1.0  0.89480  0.33333  0.25585  1.0000
  C   C1247     1.0  0.77187  0.33333  0.25585  1.0000
  C   C1248     1.0  0.77187  0.33333  0.07750  1.0000
  C   C1249     1.0  0.92251  0.50000  0.06147  1.0000
  C   C1250     1.0  0.89480  0.58918  0.00000  1.0000
  C   C1251     1.0  0.89480  0.41084  0.00000  1.0000
  C   C1252     1.0  0.77187  0.41084  0.00000  1.0000
  C   C1253     1.0  0.77187  0.58918  0.00000  1.0000
  C   C1254     1.0  0.83333  0.56147  0.08916  1.0000
  C   C1255     1.0  0.83333  0.56147  0.24417  1.0000
  C   C1256     1.0  0.83333  0.43853  0.24417  1.0000
  C   C1257     1.0  0.83333  0.43853  0.08916  1.0000
  C   C1258     1.0  0.83333  0.58918  0.27187  1.0000
  C   C1259     1.0  0.83333  0.41084  0.27187  1.0000
  C   C1260     1.0  0.83333  0.41084  0.06147  1.0000
  C   C1261     1.0  0.83333  0.58918  0.06147  1.0000
  C   C1262     1.0  0.92251  0.56147  0.00000  1.0000
  C   C1263     1.0  0.74417  0.56147  0.00000  1.0000
  C   C1264     1.0  0.74417  0.43853  0.00000  1.0000
  C   C1265     1.0  0.92251  0.43853  0.00000  1.0000
  C   C1266     1.0  0.89480  0.50000  0.08916  1.0000
  H   H509      1.0  0.75968  0.33333  0.04530  1.0000
  H   H510      1.0  0.90699  0.33333  0.04530  1.0000
  H   H511      1.0  0.90699  0.33333  0.28804  1.0000
  H   H512      1.0  0.75968  0.33333  0.28804  1.0000
  H   H513      1.0  0.71196  0.42634  0.00000  1.0000
  H   H514      1.0  0.71196  0.57366  0.00000  1.0000
  H   H515      1.0  0.95470  0.57366  0.00000  1.0000
  H   H516      1.0  0.95470  0.42634  0.00000  1.0000
  H   H517      1.0  0.66667  0.37863  0.09301  1.0000
  H   H518      1.0  0.66667  0.37863  0.24032  1.0000
  H   H519      1.0  0.66667  0.62137  0.24032  1.0000
  H   H520      1.0  0.66667  0.42634  0.28804  1.0000
  H   H521      1.0  0.66667  0.57366  0.28804  1.0000
  H   H522      1.0  0.66667  0.42634  0.04530  1.0000
  H   H523      1.0  0.75968  0.37863  0.00000  1.0000
  H   H524      1.0  0.90699  0.37863  0.00000  1.0000
  H   H525      1.0  0.90699  0.62137  0.00000  1.0000
  H   H526      1.0  0.75968  0.62137  0.00000  1.0000
  H   H527      1.0  0.71196  0.33333  0.24032  1.0000
  H   H528      1.0  0.71196  0.33333  0.09301  1.0000
  H   H529      1.0  0.95470  0.33333  0.09301  1.0000
  H   H530      1.0  0.95470  0.33333  0.24032  1.0000
  H   H531      1.0  0.90699  0.50000  0.12137  1.0000
  H   H532      1.0  0.71196  0.59301  0.16667  1.0000
  H   H533      1.0  0.71196  0.40699  0.16667  1.0000
  H   H534      1.0  0.95470  0.40699  0.16667  1.0000
  H   H535      1.0  0.95470  0.59301  0.16667  1.0000
  H   H536      1.0  0.66667  0.54530  0.25968  1.0000
  H   H537      1.0  0.66667  0.45470  0.07366  1.0000
  H   H538      1.0  0.66667  0.45470  0.25968  1.0000
  H   H539      1.0  0.66667  0.40699  0.12137  1.0000
  H   H540      1.0  0.66667  0.40699  0.21196  1.0000
  H   H541      1.0  0.66667  0.59301  0.21196  1.0000
  H   H542      1.0  0.75968  0.54530  0.16667  1.0000
  H   H543      1.0  0.90699  0.54530  0.16667  1.0000
  H   H544      1.0  0.90699  0.45470  0.16667  1.0000
  H   H545      1.0  0.75968  0.45470  0.16667  1.0000
  H   H546      1.0  0.95470  0.50000  0.07366  1.0000
  H   H547      1.0  0.92634  0.33333  0.21196  1.0000
  H   H548      1.0  0.74032  0.33333  0.21196  1.0000
  H   H549      1.0  0.74032  0.33333  0.12137  1.0000
  H   H550      1.0  0.92634  0.33333  0.12137  1.0000
  H   H551      1.0  0.87863  0.42634  0.16667  1.0000
  H   H552      1.0  0.87863  0.57366  0.16667  1.0000
  H   H553      1.0  0.78804  0.57366  0.16667  1.0000
  H   H554      1.0  0.78804  0.42634  0.16667  1.0000
  H   H555      1.0  0.83333  0.37863  0.25968  1.0000
  H   H556      1.0  0.83333  0.37863  0.07366  1.0000
  H   H557      1.0  0.83333  0.62137  0.07366  1.0000
  H   H558      1.0  0.83333  0.62137  0.25968  1.0000
  H   H559      1.0  0.83333  0.42634  0.12137  1.0000
  H   H560      1.0  0.83333  0.57366  0.12137  1.0000
  H   H561      1.0  0.83333  0.57366  0.21196  1.0000
  H   H562      1.0  0.83333  0.42634  0.21196  1.0000
  H   H563      1.0  0.92634  0.37863  0.16667  1.0000
  H   H564      1.0  0.74032  0.37863  0.16667  1.0000
  H   H565      1.0  0.74032  0.62137  0.16667  1.0000
  H   H566      1.0  0.92634  0.62137  0.16667  1.0000
  H   H567      1.0  0.87863  0.33333  0.07366  1.0000
  H   H568      1.0  0.87863  0.33333  0.25968  1.0000
  H   H569      1.0  0.78804  0.33333  0.25968  1.0000
  H   H570      1.0  0.78804  0.33333  0.07366  1.0000
  H   H571      1.0  0.92634  0.50000  0.04530  1.0000
  H   H572      1.0  0.87863  0.59301  0.00000  1.0000
  H   H573      1.0  0.87863  0.40699  0.00000  1.0000
  H   H574      1.0  0.78804  0.40699  0.00000  1.0000
  H   H575      1.0  0.78804  0.59301  0.00000  1.0000
  H   H576      1.0  0.83333  0.54530  0.09301  1.0000
  H   H577      1.0  0.83333  0.54530  0.24032  1.0000
  H   H578      1.0  0.83333  0.45470  0.24032  1.0000
  H   H579      1.0  0.83333  0.45470  0.09301  1.0000
  H   H580      1.0  0.83333  0.59301  0.28804  1.0000
  H   H581      1.0  0.83333  0.40699  0.28804  1.0000
  H   H582      1.0  0.83333  0.40699  0.04530  1.0000
  H   H583      1.0  0.83333  0.59301  0.04530  1.0000
  H   H584      1.0  0.92634  0.54530  0.00000  1.0000
  H   H585      1.0  0.74032  0.54530  0.00000  1.0000
  H   H586      1.0  0.74032  0.45470  0.00000  1.0000
  H   H587      1.0  0.92634  0.45470  0.00000  1.0000
  H   H588      1.0  0.87863  0.50000  0.09301  1.0000
  Zr  Zr193     1.0  0.70663  0.66667  0.00000  1.0000
  Zr  Zr194     1.0  0.96005  0.66667  0.00000  1.0000
  Zr  Zr195     1.0  0.66667  0.70663  0.00000  1.0000
  Zr  Zr196     1.0  0.66667  0.96005  0.00000  1.0000
  Zr  Zr197     1.0  0.66667  0.66667  0.03997  1.0000
  Zr  Zr198     1.0  0.66667  0.66667  0.29338  1.0000
  Zr  Zr199     1.0  0.70663  0.83333  0.16667  1.0000
  Zr  Zr200     1.0  0.96005  0.83333  0.16667  1.0000
  Zr  Zr201     1.0  0.66667  0.87330  0.16667  1.0000
  Zr  Zr202     1.0  0.66667  0.79337  0.16667  1.0000
  Zr  Zr203     1.0  0.66667  0.83333  0.20663  1.0000
  Zr  Zr204     1.0  0.66667  0.83333  0.12670  1.0000
  Zr  Zr205     1.0  0.87330  0.66667  0.16667  1.0000
  Zr  Zr206     1.0  0.79337  0.66667  0.16667  1.0000
  Zr  Zr207     1.0  0.83333  0.70663  0.16667  1.0000
  Zr  Zr208     1.0  0.83333  0.96005  0.16667  1.0000
  Zr  Zr209     1.0  0.83333  0.66667  0.20663  1.0000
  Zr  Zr210     1.0  0.83333  0.66667  0.12670  1.0000
  Zr  Zr211     1.0  0.87330  0.83333  0.00000  1.0000
  Zr  Zr212     1.0  0.79337  0.83333  0.00000  1.0000
  Zr  Zr213     1.0  0.83333  0.87330  0.00000  1.0000
  Zr  Zr214     1.0  0.83333  0.79337  0.00000  1.0000
  Zr  Zr215     1.0  0.83333  0.83333  0.03997  1.0000
  Zr  Zr216     1.0  0.83333  0.83333  0.29338  1.0000
  O   O1025     1.0  0.72349  0.66667  0.03177  1.0000
  O   O1026     1.0  0.94319  0.66667  0.03177  1.0000
  O   O1027     1.0  0.94319  0.66667  0.30158  1.0000
  O   O1028     1.0  0.72349  0.66667  0.30158  1.0000
  O   O1029     1.0  0.69844  0.72349  0.00000  1.0000
  O   O1030     1.0  0.69844  0.94319  0.00000  1.0000
  O   O1031     1.0  0.96824  0.94319  0.00000  1.0000
  O   O1032     1.0  0.96824  0.72349  0.00000  1.0000
  O   O1033     1.0  0.66667  0.69844  0.05683  1.0000
  O   O1034     1.0  0.66667  0.69844  0.27652  1.0000
  O   O1035     1.0  0.66667  0.96824  0.27652  1.0000
  O   O1036     1.0  0.66667  0.96824  0.05683  1.0000
  O   O1037     1.0  0.66667  0.72349  0.30158  1.0000
  O   O1038     1.0  0.66667  0.94319  0.30158  1.0000
  O   O1039     1.0  0.66667  0.94319  0.03177  1.0000
  O   O1040     1.0  0.66667  0.72349  0.03177  1.0000
  O   O1041     1.0  0.72349  0.69844  0.00000  1.0000
  O   O1042     1.0  0.94319  0.69844  0.00000  1.0000
  O   O1043     1.0  0.94319  0.96824  0.00000  1.0000
  O   O1044     1.0  0.72349  0.96824  0.00000  1.0000
  O   O1045     1.0  0.69844  0.66667  0.27652  1.0000
  O   O1046     1.0  0.69844  0.66667  0.05683  1.0000
  O   O1047     1.0  0.96824  0.66667  0.05683  1.0000
  O   O1048     1.0  0.96824  0.66667  0.27652  1.0000
  O   O1049     1.0  0.72349  0.83333  0.19844  1.0000
  O   O1050     1.0  0.94319  0.83333  0.19844  1.0000
  O   O1051     1.0  0.94319  0.83333  0.13490  1.0000
  O   O1052     1.0  0.72349  0.83333  0.13490  1.0000
  O   O1053     1.0  0.69844  0.89016  0.16667  1.0000
  O   O1054     1.0  0.69844  0.77651  0.16667  1.0000
  O   O1055     1.0  0.96824  0.77651  0.16667  1.0000
  O   O1056     1.0  0.96824  0.89016  0.16667  1.0000
  O   O1057     1.0  0.66667  0.86510  0.22349  1.0000
  O   O1058     1.0  0.66667  0.86510  0.10984  1.0000
  O   O1059     1.0  0.66667  0.80156  0.10984  1.0000
  O   O1060     1.0  0.66667  0.80156  0.22349  1.0000
  O   O1061     1.0  0.66667  0.89016  0.13490  1.0000
  O   O1062     1.0  0.66667  0.77651  0.13490  1.0000
  O   O1063     1.0  0.66667  0.77651  0.19844  1.0000
  O   O1064     1.0  0.66667  0.89016  0.19844  1.0000
  O   O1065     1.0  0.72349  0.86510  0.16667  1.0000
  O   O1066     1.0  0.94319  0.86510  0.16667  1.0000
  O   O1067     1.0  0.94319  0.80156  0.16667  1.0000
  O   O1068     1.0  0.72349  0.80156  0.16667  1.0000
  O   O1069     1.0  0.69844  0.83333  0.10984  1.0000
  O   O1070     1.0  0.69844  0.83333  0.22349  1.0000
  O   O1071     1.0  0.96824  0.83333  0.22349  1.0000
  O   O1072     1.0  0.96824  0.83333  0.10984  1.0000
  O   O1073     1.0  0.89016  0.66667  0.19844  1.0000
  O   O1074     1.0  0.77651  0.66667  0.19844  1.0000
  O   O1075     1.0  0.77651  0.66667  0.13490  1.0000
  O   O1076     1.0  0.89016  0.66667  0.13490  1.0000
  O   O1077     1.0  0.86510  0.72349  0.16667  1.0000
  O   O1078     1.0  0.86510  0.94319  0.16667  1.0000
  O   O1079     1.0  0.80156  0.94319  0.16667  1.0000
  O   O1080     1.0  0.80156  0.72349  0.16667  1.0000
  O   O1081     1.0  0.83333  0.69844  0.22349  1.0000
  O   O1082     1.0  0.83333  0.69844  0.10984  1.0000
  O   O1083     1.0  0.83333  0.96824  0.10984  1.0000
  O   O1084     1.0  0.83333  0.96824  0.22349  1.0000
  O   O1085     1.0  0.83333  0.72349  0.13490  1.0000
  O   O1086     1.0  0.83333  0.94319  0.13490  1.0000
  O   O1087     1.0  0.83333  0.94319  0.19844  1.0000
  O   O1088     1.0  0.83333  0.72349  0.19844  1.0000
  O   O1089     1.0  0.89016  0.69844  0.16667  1.0000
  O   O1090     1.0  0.77651  0.69844  0.16667  1.0000
  O   O1091     1.0  0.77651  0.96824  0.16667  1.0000
  O   O1092     1.0  0.89016  0.96824  0.16667  1.0000
  O   O1093     1.0  0.86510  0.66667  0.10984  1.0000
  O   O1094     1.0  0.86510  0.66667  0.22349  1.0000
  O   O1095     1.0  0.80156  0.66667  0.22349  1.0000
  O   O1096     1.0  0.80156  0.66667  0.10984  1.0000
  O   O1097     1.0  0.89016  0.83333  0.03177  1.0000
  O   O1098     1.0  0.77651  0.83333  0.03177  1.0000
  O   O1099     1.0  0.77651  0.83333  0.30158  1.0000
  O   O1100     1.0  0.89016  0.83333  0.30158  1.0000
  O   O1101     1.0  0.86510  0.89016  0.00000  1.0000
  O   O1102     1.0  0.86510  0.77651  0.00000  1.0000
  O   O1103     1.0  0.80156  0.77651  0.00000  1.0000
  O   O1104     1.0  0.80156  0.89016  0.00000  1.0000
  O   O1105     1.0  0.83333  0.86510  0.05683  1.0000
  O   O1106     1.0  0.83333  0.86510  0.27652  1.0000
  O   O1107     1.0  0.83333  0.80156  0.27652  1.0000
  O   O1108     1.0  0.83333  0.80156  0.05683  1.0000
  O   O1109     1.0  0.83333  0.89016  0.30158  1.0000
  O   O1110     1.0  0.83333  0.77651  0.30158  1.0000
  O   O1111     1.0  0.83333  0.77651  0.03177  1.0000
  O   O1112     1.0  0.83333  0.89016  0.03177  1.0000
  O   O1113     1.0  0.89016  0.86510  0.00000  1.0000
  O   O1114     1.0  0.77651  0.86510  0.00000  1.0000
  O   O1115     1.0  0.77651  0.80156  0.00000  1.0000
  O   O1116     1.0  0.89016  0.80156  0.00000  1.0000
  O   O1117     1.0  0.86510  0.83333  0.27652  1.0000
  O   O1118     1.0  0.86510  0.83333  0.05683  1.0000
  O   O1119     1.0  0.80156  0.83333  0.05683  1.0000
  O   O1120     1.0  0.80156  0.83333  0.27652  1.0000
  O   O1121     1.0  0.68536  0.98130  0.31464  1.0000
  O   O1122     1.0  0.98130  0.68536  0.31464  1.0000
  O   O1123     1.0  0.98130  0.98130  0.01870  1.0000
  O   O1124     1.0  0.68536  0.68536  0.01870  1.0000
  O   O1125     1.0  0.98130  0.68536  0.01870  1.0000
  O   O1126     1.0  0.68536  0.98130  0.01870  1.0000
  O   O1127     1.0  0.98130  0.98130  0.31464  1.0000
  O   O1128     1.0  0.68536  0.68536  0.31464  1.0000
  O   O1129     1.0  0.68536  0.81464  0.14797  1.0000
  O   O1130     1.0  0.98130  0.85203  0.14797  1.0000
  O   O1131     1.0  0.98130  0.81464  0.18536  1.0000
  O   O1132     1.0  0.68536  0.85203  0.18536  1.0000
  O   O1133     1.0  0.98130  0.85203  0.18536  1.0000
  O   O1134     1.0  0.68536  0.81464  0.18536  1.0000
  O   O1135     1.0  0.98130  0.81464  0.14797  1.0000
  O   O1136     1.0  0.68536  0.85203  0.14797  1.0000
  O   O1137     1.0  0.85203  0.98130  0.14797  1.0000
  O   O1138     1.0  0.81464  0.68536  0.14797  1.0000
  O   O1139     1.0  0.81464  0.98130  0.18536  1.0000
  O   O1140     1.0  0.85203  0.68536  0.18536  1.0000
  O   O1141     1.0  0.81464  0.68536  0.18536  1.0000
  O   O1142     1.0  0.85203  0.98130  0.18536  1.0000
  O   O1143     1.0  0.81464  0.98130  0.14797  1.0000
  O   O1144     1.0  0.85203  0.68536  0.14797  1.0000
  O   O1145     1.0  0.85203  0.81464  0.31464  1.0000
  O   O1146     1.0  0.81464  0.85203  0.31464  1.0000
  O   O1147     1.0  0.81464  0.81464  0.01870  1.0000
  O   O1148     1.0  0.85203  0.85203  0.01870  1.0000
  O   O1149     1.0  0.81464  0.85203  0.01870  1.0000
  O   O1150     1.0  0.85203  0.81464  0.01870  1.0000
  O   O1151     1.0  0.81464  0.81464  0.31464  1.0000
  O   O1152     1.0  0.85203  0.85203  0.31464  1.0000
  C   C1267     1.0  0.71787  0.66667  0.28214  1.0000
  C   C1268     1.0  0.94881  0.66667  0.28214  1.0000
  C   C1269     1.0  0.94881  0.66667  0.05121  1.0000
  C   C1270     1.0  0.71787  0.66667  0.05121  1.0000
  C   C1271     1.0  0.94881  0.71787  0.00000  1.0000
  C   C1272     1.0  0.94881  0.94881  0.00000  1.0000
  C   C1273     1.0  0.71787  0.94881  0.00000  1.0000
  C   C1274     1.0  0.71787  0.71787  0.00000  1.0000
  C   C1275     1.0  0.66667  0.94881  0.05121  1.0000
  C   C1276     1.0  0.66667  0.94881  0.28214  1.0000
  C   C1277     1.0  0.66667  0.71787  0.28214  1.0000
  C   C1278     1.0  0.66667  0.71787  0.05121  1.0000
  C   C1279     1.0  0.71787  0.83333  0.11548  1.0000
  C   C1280     1.0  0.94881  0.83333  0.11548  1.0000
  C   C1281     1.0  0.94881  0.83333  0.21787  1.0000
  C   C1282     1.0  0.71787  0.83333  0.21787  1.0000
  C   C1283     1.0  0.94881  0.88454  0.16667  1.0000
  C   C1284     1.0  0.94881  0.78214  0.16667  1.0000
  C   C1285     1.0  0.71787  0.78214  0.16667  1.0000
  C   C1286     1.0  0.71787  0.88454  0.16667  1.0000
  C   C1287     1.0  0.66667  0.78214  0.21787  1.0000
  C   C1288     1.0  0.66667  0.78214  0.11548  1.0000
  C   C1289     1.0  0.66667  0.88454  0.11548  1.0000
  C   C1290     1.0  0.66667  0.88454  0.21787  1.0000
  C   C1291     1.0  0.88454  0.66667  0.11548  1.0000
  C   C1292     1.0  0.78214  0.66667  0.11548  1.0000
  C   C1293     1.0  0.78214  0.66667  0.21787  1.0000
  C   C1294     1.0  0.88454  0.66667  0.21787  1.0000
  C   C1295     1.0  0.78214  0.71787  0.16667  1.0000
  C   C1296     1.0  0.78214  0.94881  0.16667  1.0000
  C   C1297     1.0  0.88454  0.94881  0.16667  1.0000
  C   C1298     1.0  0.88454  0.71787  0.16667  1.0000
  C   C1299     1.0  0.83333  0.94881  0.21787  1.0000
  C   C1300     1.0  0.83333  0.94881  0.11548  1.0000
  C   C1301     1.0  0.83333  0.71787  0.11548  1.0000
  C   C1302     1.0  0.83333  0.71787  0.21787  1.0000
  C   C1303     1.0  0.88454  0.83333  0.28214  1.0000
  C   C1304     1.0  0.78214  0.83333  0.28214  1.0000
  C   C1305     1.0  0.78214  0.83333  0.05121  1.0000
  C   C1306     1.0  0.88454  0.83333  0.05121  1.0000
  C   C1307     1.0  0.78214  0.88454  0.00000  1.0000
  C   C1308     1.0  0.78214  0.78214  0.00000  1.0000
  C   C1309     1.0  0.88454  0.78214  0.00000  1.0000
  C   C1310     1.0  0.88454  0.88454  0.00000  1.0000
  C   C1311     1.0  0.83333  0.78214  0.05121  1.0000
  C   C1312     1.0  0.83333  0.78214  0.28214  1.0000
  C   C1313     1.0  0.83333  0.88454  0.28214  1.0000
  C   C1314     1.0  0.83333  0.88454  0.05121  1.0000
  C   C1315     1.0  0.93167  0.66667  0.26501  1.0000
  C   C1316     1.0  0.73501  0.66667  0.26501  1.0000
  C   C1317     1.0  0.73501  0.73501  0.00000  1.0000
  C   C1318     1.0  0.73501  0.93167  0.00000  1.0000
  C   C1319     1.0  0.93167  0.93167  0.00000  1.0000
  C   C1320     1.0  0.93167  0.73501  0.00000  1.0000
  C   C1321     1.0  0.66667  0.73501  0.26501  1.0000
  C   C1322     1.0  0.66667  0.93167  0.26501  1.0000
  C   C1323     1.0  0.66667  0.93167  0.06834  1.0000
  C   C1324     1.0  0.93167  0.83333  0.23501  1.0000
  C   C1325     1.0  0.93167  0.83333  0.09834  1.0000
  C   C1326     1.0  0.73501  0.83333  0.09834  1.0000
  C   C1327     1.0  0.73501  0.76501  0.16667  1.0000
  C   C1328     1.0  0.93167  0.76501  0.16667  1.0000
  C   C1329     1.0  0.93167  0.90167  0.16667  1.0000
  C   C1330     1.0  0.66667  0.90167  0.23501  1.0000
  C   C1331     1.0  0.66667  0.90167  0.09834  1.0000
  C   C1332     1.0  0.66667  0.76501  0.23501  1.0000
  C   C1333     1.0  0.90167  0.66667  0.23501  1.0000
  C   C1334     1.0  0.76501  0.66667  0.23501  1.0000
  C   C1335     1.0  0.90167  0.73501  0.16667  1.0000
  C   C1336     1.0  0.90167  0.93167  0.16667  1.0000
  C   C1337     1.0  0.76501  0.73501  0.16667  1.0000
  C   C1338     1.0  0.83333  0.73501  0.23501  1.0000
  C   C1339     1.0  0.83333  0.73501  0.09834  1.0000
  C   C1340     1.0  0.83333  0.93167  0.09834  1.0000
  C   C1341     1.0  0.90167  0.83333  0.06834  1.0000
  C   C1342     1.0  0.76501  0.83333  0.06834  1.0000
  C   C1343     1.0  0.90167  0.83333  0.26501  1.0000
  C   C1344     1.0  0.90167  0.90167  0.00000  1.0000
  C   C1345     1.0  0.90167  0.76501  0.00000  1.0000
  C   C1346     1.0  0.76501  0.76501  0.00000  1.0000
  C   C1347     1.0  0.76501  0.90167  0.00000  1.0000
  C   C1348     1.0  0.83333  0.90167  0.06834  1.0000
  C   C1349     1.0  0.83333  0.76501  0.26501  1.0000
  C   C1350     1.0  0.83333  0.76501  0.06834  1.0000
  C   C1351     1.0  0.91084  0.66667  0.27187  1.0000
  C   C1352     1.0  0.75583  0.66667  0.27187  1.0000
  C   C1353     1.0  0.72813  0.75583  0.00000  1.0000
  C   C1354     1.0  0.72813  0.91084  0.00000  1.0000
  C   C1355     1.0  0.93853  0.91084  0.00000  1.0000
  C   C1356     1.0  0.93853  0.75583  0.00000  1.0000
  C   C1357     1.0  0.66667  0.72813  0.24417  1.0000
  C   C1358     1.0  0.66667  0.93853  0.24417  1.0000
  C   C1359     1.0  0.66667  0.93853  0.08916  1.0000
  C   C1360     1.0  0.66667  0.75583  0.27187  1.0000
  C   C1361     1.0  0.66667  0.91084  0.27187  1.0000
  C   C1362     1.0  0.66667  0.91084  0.06147  1.0000
  C   C1363     1.0  0.75583  0.72813  0.00000  1.0000
  C   C1364     1.0  0.91084  0.72813  0.00000  1.0000
  C   C1365     1.0  0.91084  0.93853  0.00000  1.0000
  C   C1366     1.0  0.75583  0.93853  0.00000  1.0000
  C   C1367     1.0  0.72813  0.66667  0.24417  1.0000
  C   C1368     1.0  0.93853  0.66667  0.24417  1.0000
  C   C1369     1.0  0.91084  0.83333  0.22813  1.0000
  C   C1370     1.0  0.91084  0.83333  0.10520  1.0000
  C   C1371     1.0  0.75583  0.83333  0.10520  1.0000
  C   C1372     1.0  0.72813  0.74417  0.16667  1.0000
  C   C1373     1.0  0.93853  0.74417  0.16667  1.0000
  C   C1374     1.0  0.93853  0.92251  0.16667  1.0000
  C   C1375     1.0  0.66667  0.89480  0.25585  1.0000
  C   C1376     1.0  0.66667  0.89480  0.07750  1.0000
  C   C1377     1.0  0.66667  0.77187  0.25585  1.0000
  C   C1378     1.0  0.66667  0.92251  0.10520  1.0000
  C   C1379     1.0  0.66667  0.74417  0.22813  1.0000
  C   C1380     1.0  0.66667  0.92251  0.22813  1.0000
  C   C1381     1.0  0.91084  0.89480  0.16667  1.0000
  C   C1382     1.0  0.91084  0.77187  0.16667  1.0000
  C   C1383     1.0  0.75583  0.77187  0.16667  1.0000
  C   C1384     1.0  0.72813  0.83333  0.07750  1.0000
  C   C1385     1.0  0.93853  0.83333  0.25585  1.0000
  C   C1386     1.0  0.93853  0.83333  0.07750  1.0000
  C   C1387     1.0  0.92251  0.66667  0.22813  1.0000
  C   C1388     1.0  0.74417  0.66667  0.22813  1.0000
  C   C1389     1.0  0.89480  0.75583  0.16667  1.0000
  C   C1390     1.0  0.89480  0.91084  0.16667  1.0000
  C   C1391     1.0  0.77187  0.75583  0.16667  1.0000
  C   C1392     1.0  0.83333  0.72813  0.25585  1.0000
  C   C1393     1.0  0.83333  0.72813  0.07750  1.0000
  C   C1394     1.0  0.83333  0.93853  0.07750  1.0000
  C   C1395     1.0  0.83333  0.75583  0.10520  1.0000
  C   C1396     1.0  0.83333  0.91084  0.10520  1.0000
  C   C1397     1.0  0.83333  0.75583  0.22813  1.0000
  C   C1398     1.0  0.92251  0.72813  0.16667  1.0000
  C   C1399     1.0  0.74417  0.72813  0.16667  1.0000
  C   C1400     1.0  0.92251  0.93853  0.16667  1.0000
  C   C1401     1.0  0.89480  0.66667  0.25585  1.0000
  C   C1402     1.0  0.77187  0.66667  0.25585  1.0000
  C   C1403     1.0  0.92251  0.83333  0.06147  1.0000
  C   C1404     1.0  0.74417  0.83333  0.06147  1.0000
  C   C1405     1.0  0.92251  0.83333  0.27187  1.0000
  C   C1406     1.0  0.89480  0.92251  0.00000  1.0000
  C   C1407     1.0  0.89480  0.74417  0.00000  1.0000
  C   C1408     1.0  0.77187  0.74417  0.00000  1.0000
  C   C1409     1.0  0.77187  0.92251  0.00000  1.0000
  C   C1410     1.0  0.83333  0.89480  0.08916  1.0000
  C   C1411     1.0  0.83333  0.77187  0.24417  1.0000
  C   C1412     1.0  0.83333  0.77187  0.08916  1.0000
  C   C1413     1.0  0.83333  0.74417  0.27187  1.0000
  C   C1414     1.0  0.83333  0.74417  0.06147  1.0000
  C   C1415     1.0  0.83333  0.92251  0.06147  1.0000
  C   C1416     1.0  0.92251  0.89480  0.00000  1.0000
  C   C1417     1.0  0.74417  0.89480  0.00000  1.0000
  C   C1418     1.0  0.74417  0.77187  0.00000  1.0000
  C   C1419     1.0  0.92251  0.77187  0.00000  1.0000
  C   C1420     1.0  0.89480  0.83333  0.24417  1.0000
  C   C1421     1.0  0.89480  0.83333  0.08916  1.0000
  C   C1422     1.0  0.77187  0.83333  0.08916  1.0000
  H   H589      1.0  0.90699  0.66667  0.28804  1.0000
  H   H590      1.0  0.75968  0.66667  0.28804  1.0000
  H   H591      1.0  0.71196  0.75968  0.00000  1.0000
  H   H592      1.0  0.71196  0.90699  0.00000  1.0000
  H   H593      1.0  0.95470  0.90699  0.00000  1.0000
  H   H594      1.0  0.95470  0.75968  0.00000  1.0000
  H   H595      1.0  0.66667  0.71196  0.24032  1.0000
  H   H596      1.0  0.66667  0.95470  0.24032  1.0000
  H   H597      1.0  0.66667  0.95470  0.09301  1.0000
  H   H598      1.0  0.66667  0.75968  0.28804  1.0000
  H   H599      1.0  0.66667  0.90699  0.28804  1.0000
  H   H600      1.0  0.66667  0.90699  0.04530  1.0000
  H   H601      1.0  0.75968  0.71196  0.00000  1.0000
  H   H602      1.0  0.90699  0.71196  0.00000  1.0000
  H   H603      1.0  0.90699  0.95470  0.00000  1.0000
  H   H604      1.0  0.75968  0.95470  0.00000  1.0000
  H   H605      1.0  0.71196  0.66667  0.24032  1.0000
  H   H606      1.0  0.95470  0.66667  0.24032  1.0000
  H   H607      1.0  0.90699  0.83333  0.21196  1.0000
  H   H608      1.0  0.90699  0.83333  0.12137  1.0000
  H   H609      1.0  0.75968  0.83333  0.12137  1.0000
  H   H610      1.0  0.71196  0.74032  0.16667  1.0000
  H   H611      1.0  0.95470  0.74032  0.16667  1.0000
  H   H612      1.0  0.95470  0.92634  0.16667  1.0000
  H   H613      1.0  0.66667  0.87863  0.25968  1.0000
  H   H614      1.0  0.66667  0.87863  0.07366  1.0000
  H   H615      1.0  0.66667  0.78804  0.25968  1.0000
  H   H616      1.0  0.66667  0.92634  0.12137  1.0000
  H   H617      1.0  0.66667  0.74032  0.21196  1.0000
  H   H618      1.0  0.66667  0.92634  0.21196  1.0000
  H   H619      1.0  0.90699  0.87863  0.16667  1.0000
  H   H620      1.0  0.90699  0.78804  0.16667  1.0000
  H   H621      1.0  0.75968  0.78804  0.16667  1.0000
  H   H622      1.0  0.71196  0.83333  0.07366  1.0000
  H   H623      1.0  0.95470  0.83333  0.25968  1.0000
  H   H624      1.0  0.95470  0.83333  0.07366  1.0000
  H   H625      1.0  0.92634  0.66667  0.21196  1.0000
  H   H626      1.0  0.74032  0.66667  0.21196  1.0000
  H   H627      1.0  0.87863  0.75968  0.16667  1.0000
  H   H628      1.0  0.87863  0.90699  0.16667  1.0000
  H   H629      1.0  0.78804  0.75968  0.16667  1.0000
  H   H630      1.0  0.83333  0.71196  0.25968  1.0000
  H   H631      1.0  0.83333  0.71196  0.07366  1.0000
  H   H632      1.0  0.83333  0.95470  0.07366  1.0000
  H   H633      1.0  0.83333  0.75968  0.12137  1.0000
  H   H634      1.0  0.83333  0.90699  0.12137  1.0000
  H   H635      1.0  0.83333  0.75968  0.21196  1.0000
  H   H636      1.0  0.92634  0.71196  0.16667  1.0000
  H   H637      1.0  0.74032  0.71196  0.16667  1.0000
  H   H638      1.0  0.92634  0.95470  0.16667  1.0000
  H   H639      1.0  0.87863  0.66667  0.25968  1.0000
  H   H640      1.0  0.78804  0.66667  0.25968  1.0000
  H   H641      1.0  0.92634  0.83333  0.04530  1.0000
  H   H642      1.0  0.74032  0.83333  0.04530  1.0000
  H   H643      1.0  0.92634  0.83333  0.28804  1.0000
  H   H644      1.0  0.87863  0.92634  0.00000  1.0000
  H   H645      1.0  0.87863  0.74032  0.00000  1.0000
  H   H646      1.0  0.78804  0.74032  0.00000  1.0000
  H   H647      1.0  0.78804  0.92634  0.00000  1.0000
  H   H648      1.0  0.83333  0.87863  0.09301  1.0000
  H   H649      1.0  0.83333  0.78804  0.24032  1.0000
  H   H650      1.0  0.83333  0.78804  0.09301  1.0000
  H   H651      1.0  0.83333  0.74032  0.28804  1.0000
  H   H652      1.0  0.83333  0.74032  0.04530  1.0000
  H   H653      1.0  0.83333  0.92634  0.04530  1.0000
  H   H654      1.0  0.92634  0.87863  0.00000  1.0000
  H   H655      1.0  0.74032  0.87863  0.00000  1.0000
  H   H656      1.0  0.74032  0.78804  0.00000  1.0000
  H   H657      1.0  0.92634  0.78804  0.00000  1.0000
  H   H658      1.0  0.87863  0.83333  0.24032  1.0000
  H   H659      1.0  0.87863  0.83333  0.09301  1.0000
  H   H660      1.0  0.78804  0.83333  0.09301  1.0000
  Zr  Zr217     1.0  0.03997  0.00000  0.33333  1.0000
  Zr  Zr218     1.0  0.29338  0.00000  0.33333  1.0000
  Zr  Zr219     1.0  0.00000  0.03997  0.33333  1.0000
  Zr  Zr220     1.0  0.00000  0.29338  0.33333  1.0000
  Zr  Zr221     1.0  0.00000  0.00000  0.37330  1.0000
  Zr  Zr222     1.0  0.00000  0.00000  0.62671  1.0000
  Zr  Zr223     1.0  0.03997  0.16667  0.50000  1.0000
  Zr  Zr224     1.0  0.29338  0.16667  0.50000  1.0000
  Zr  Zr225     1.0  0.00000  0.20663  0.50000  1.0000
  Zr  Zr226     1.0  0.00000  0.12670  0.50000  1.0000
  Zr  Zr227     1.0  0.00000  0.16667  0.53997  1.0000
  Zr  Zr228     1.0  0.00000  0.16667  0.46003  1.0000
  Zr  Zr229     1.0  0.20663  0.00000  0.50000  1.0000
  Zr  Zr230     1.0  0.12670  0.00000  0.50000  1.0000
  Zr  Zr231     1.0  0.16667  0.03997  0.50000  1.0000
  Zr  Zr232     1.0  0.16667  0.29338  0.50000  1.0000
  Zr  Zr233     1.0  0.16667  0.00000  0.53997  1.0000
  Zr  Zr234     1.0  0.16667  0.00000  0.46003  1.0000
  Zr  Zr235     1.0  0.20663  0.16667  0.33333  1.0000
  Zr  Zr236     1.0  0.12670  0.16667  0.33333  1.0000
  Zr  Zr237     1.0  0.16667  0.20663  0.33333  1.0000
  Zr  Zr238     1.0  0.16667  0.12670  0.33333  1.0000
  Zr  Zr239     1.0  0.16667  0.16667  0.37330  1.0000
  Zr  Zr240     1.0  0.16667  0.16667  0.62671  1.0000
  O   O1153     1.0  0.05683  0.00000  0.36510  1.0000
  O   O1154     1.0  0.27652  0.00000  0.36510  1.0000
  O   O1155     1.0  0.27652  0.00000  0.63491  1.0000
  O   O1156     1.0  0.05683  0.00000  0.63491  1.0000
  O   O1157     1.0  0.03177  0.05683  0.33333  1.0000
  O   O1158     1.0  0.03177  0.27652  0.33333  1.0000
  O   O1159     1.0  0.30158  0.27652  0.33333  1.0000
  O   O1160     1.0  0.30158  0.05683  0.33333  1.0000
  O   O1161     1.0  0.00000  0.03177  0.39016  1.0000
  O   O1162     1.0  0.00000  0.03177  0.60986  1.0000
  O   O1163     1.0  0.00000  0.30158  0.60986  1.0000
  O   O1164     1.0  0.00000  0.30158  0.39016  1.0000
  O   O1165     1.0  0.00000  0.05683  0.63491  1.0000
  O   O1166     1.0  0.00000  0.27652  0.63491  1.0000
  O   O1167     1.0  0.00000  0.27652  0.36510  1.0000
  O   O1168     1.0  0.00000  0.05683  0.36510  1.0000
  O   O1169     1.0  0.05683  0.03177  0.33333  1.0000
  O   O1170     1.0  0.27652  0.03177  0.33333  1.0000
  O   O1171     1.0  0.27652  0.30158  0.33333  1.0000
  O   O1172     1.0  0.05683  0.30158  0.33333  1.0000
  O   O1173     1.0  0.03177  0.00000  0.60986  1.0000
  O   O1174     1.0  0.03177  0.00000  0.39016  1.0000
  O   O1175     1.0  0.30158  0.00000  0.39016  1.0000
  O   O1176     1.0  0.30158  0.00000  0.60986  1.0000
  O   O1177     1.0  0.05683  0.16667  0.53177  1.0000
  O   O1178     1.0  0.27652  0.16667  0.53177  1.0000
  O   O1179     1.0  0.27652  0.16667  0.46823  1.0000
  O   O1180     1.0  0.05683  0.16667  0.46823  1.0000
  O   O1181     1.0  0.03177  0.22349  0.50000  1.0000
  O   O1182     1.0  0.03177  0.10984  0.50000  1.0000
  O   O1183     1.0  0.30158  0.10984  0.50000  1.0000
  O   O1184     1.0  0.30158  0.22349  0.50000  1.0000
  O   O1185     1.0  0.00000  0.19844  0.55683  1.0000
  O   O1186     1.0  0.00000  0.19844  0.44317  1.0000
  O   O1187     1.0  0.00000  0.13490  0.44317  1.0000
  O   O1188     1.0  0.00000  0.13490  0.55683  1.0000
  O   O1189     1.0  0.00000  0.22349  0.46823  1.0000
  O   O1190     1.0  0.00000  0.10984  0.46823  1.0000
  O   O1191     1.0  0.00000  0.10984  0.53177  1.0000
  O   O1192     1.0  0.00000  0.22349  0.53177  1.0000
  O   O1193     1.0  0.05683  0.19844  0.50000  1.0000
  O   O1194     1.0  0.27652  0.19844  0.50000  1.0000
  O   O1195     1.0  0.27652  0.13490  0.50000  1.0000
  O   O1196     1.0  0.05683  0.13490  0.50000  1.0000
  O   O1197     1.0  0.03177  0.16667  0.44317  1.0000
  O   O1198     1.0  0.03177  0.16667  0.55683  1.0000
  O   O1199     1.0  0.30158  0.16667  0.55683  1.0000
  O   O1200     1.0  0.30158  0.16667  0.44317  1.0000
  O   O1201     1.0  0.22349  0.00000  0.53177  1.0000
  O   O1202     1.0  0.10984  0.00000  0.53177  1.0000
  O   O1203     1.0  0.10984  0.00000  0.46823  1.0000
  O   O1204     1.0  0.22349  0.00000  0.46823  1.0000
  O   O1205     1.0  0.19844  0.05683  0.50000  1.0000
  O   O1206     1.0  0.19844  0.27652  0.50000  1.0000
  O   O1207     1.0  0.13490  0.27652  0.50000  1.0000
  O   O1208     1.0  0.13490  0.05683  0.50000  1.0000
  O   O1209     1.0  0.16667  0.03177  0.55683  1.0000
  O   O1210     1.0  0.16667  0.03177  0.44317  1.0000
  O   O1211     1.0  0.16667  0.30158  0.44317  1.0000
  O   O1212     1.0  0.16667  0.30158  0.55683  1.0000
  O   O1213     1.0  0.16667  0.05683  0.46823  1.0000
  O   O1214     1.0  0.16667  0.27652  0.46823  1.0000
  O   O1215     1.0  0.16667  0.27652  0.53177  1.0000
  O   O1216     1.0  0.16667  0.05683  0.53177  1.0000
  O   O1217     1.0  0.22349  0.03177  0.50000  1.0000
  O   O1218     1.0  0.10984  0.03177  0.50000  1.0000
  O   O1219     1.0  0.10984  0.30158  0.50000  1.0000
  O   O1220     1.0  0.22349  0.30158  0.50000  1.0000
  O   O1221     1.0  0.19844  0.00000  0.44317  1.0000
  O   O1222     1.0  0.19844  0.00000  0.55683  1.0000
  O   O1223     1.0  0.13490  0.00000  0.55683  1.0000
  O   O1224     1.0  0.13490  0.00000  0.44317  1.0000
  O   O1225     1.0  0.22349  0.16667  0.36510  1.0000
  O   O1226     1.0  0.10984  0.16667  0.36510  1.0000
  O   O1227     1.0  0.10984  0.16667  0.63491  1.0000
  O   O1228     1.0  0.22349  0.16667  0.63491  1.0000
  O   O1229     1.0  0.19844  0.22349  0.33333  1.0000
  O   O1230     1.0  0.19844  0.10984  0.33333  1.0000
  O   O1231     1.0  0.13490  0.10984  0.33333  1.0000
  O   O1232     1.0  0.13490  0.22349  0.33333  1.0000
  O   O1233     1.0  0.16667  0.19844  0.39016  1.0000
  O   O1234     1.0  0.16667  0.19844  0.60986  1.0000
  O   O1235     1.0  0.16667  0.13490  0.60986  1.0000
  O   O1236     1.0  0.16667  0.13490  0.39016  1.0000
  O   O1237     1.0  0.16667  0.22349  0.63491  1.0000
  O   O1238     1.0  0.16667  0.10984  0.63491  1.0000
  O   O1239     1.0  0.16667  0.10984  0.36510  1.0000
  O   O1240     1.0  0.16667  0.22349  0.36510  1.0000
  O   O1241     1.0  0.22349  0.19844  0.33333  1.0000
  O   O1242     1.0  0.10984  0.19844  0.33333  1.0000
  O   O1243     1.0  0.10984  0.13490  0.33333  1.0000
  O   O1244     1.0  0.22349  0.13490  0.33333  1.0000
  O   O1245     1.0  0.19844  0.16667  0.60986  1.0000
  O   O1246     1.0  0.19844  0.16667  0.39016  1.0000
  O   O1247     1.0  0.13490  0.16667  0.39016  1.0000
  O   O1248     1.0  0.13490  0.16667  0.60986  1.0000
  O   O1249     1.0  0.01870  0.31464  0.64797  1.0000
  O   O1250     1.0  0.31464  0.01870  0.64797  1.0000
  O   O1251     1.0  0.31464  0.31464  0.35203  1.0000
  O   O1252     1.0  0.01870  0.01870  0.35203  1.0000
  O   O1253     1.0  0.31464  0.01870  0.35203  1.0000
  O   O1254     1.0  0.01870  0.31464  0.35203  1.0000
  O   O1255     1.0  0.31464  0.31464  0.64797  1.0000
  O   O1256     1.0  0.01870  0.01870  0.64797  1.0000
  O   O1257     1.0  0.01870  0.14797  0.48130  1.0000
  O   O1258     1.0  0.31464  0.18536  0.48130  1.0000
  O   O1259     1.0  0.31464  0.14797  0.51870  1.0000
  O   O1260     1.0  0.01870  0.18536  0.51870  1.0000
  O   O1261     1.0  0.31464  0.18536  0.51870  1.0000
  O   O1262     1.0  0.01870  0.14797  0.51870  1.0000
  O   O1263     1.0  0.31464  0.14797  0.48130  1.0000
  O   O1264     1.0  0.01870  0.18536  0.48130  1.0000
  O   O1265     1.0  0.18536  0.31464  0.48130  1.0000
  O   O1266     1.0  0.14797  0.01870  0.48130  1.0000
  O   O1267     1.0  0.14797  0.31464  0.51870  1.0000
  O   O1268     1.0  0.18536  0.01870  0.51870  1.0000
  O   O1269     1.0  0.14797  0.01870  0.51870  1.0000
  O   O1270     1.0  0.18536  0.31464  0.51870  1.0000
  O   O1271     1.0  0.14797  0.31464  0.48130  1.0000
  O   O1272     1.0  0.18536  0.01870  0.48130  1.0000
  O   O1273     1.0  0.18536  0.14797  0.64797  1.0000
  O   O1274     1.0  0.14797  0.18536  0.64797  1.0000
  O   O1275     1.0  0.14797  0.14797  0.35203  1.0000
  O   O1276     1.0  0.18536  0.18536  0.35203  1.0000
  O   O1277     1.0  0.14797  0.18536  0.35203  1.0000
  O   O1278     1.0  0.18536  0.14797  0.35203  1.0000
  O   O1279     1.0  0.14797  0.14797  0.64797  1.0000
  O   O1280     1.0  0.18536  0.18536  0.64797  1.0000
  C   C1423     1.0  0.05121  0.00000  0.61548  1.0000
  C   C1424     1.0  0.28214  0.00000  0.61548  1.0000
  C   C1425     1.0  0.28214  0.00000  0.38454  1.0000
  C   C1426     1.0  0.05121  0.00000  0.38454  1.0000
  C   C1427     1.0  0.28214  0.05121  0.33333  1.0000
  C   C1428     1.0  0.28214  0.28214  0.33333  1.0000
  C   C1429     1.0  0.05121  0.28214  0.33333  1.0000
  C   C1430     1.0  0.05121  0.05121  0.33333  1.0000
  C   C1431     1.0  0.00000  0.28214  0.38454  1.0000
  C   C1432     1.0  0.00000  0.28214  0.61548  1.0000
  C   C1433     1.0  0.00000  0.05121  0.61548  1.0000
  C   C1434     1.0  0.00000  0.05121  0.38454  1.0000
  C   C1435     1.0  0.05121  0.16667  0.44881  1.0000
  C   C1436     1.0  0.28214  0.16667  0.44881  1.0000
  C   C1437     1.0  0.28214  0.16667  0.55121  1.0000
  C   C1438     1.0  0.05121  0.16667  0.55121  1.0000
  C   C1439     1.0  0.28214  0.21787  0.50000  1.0000
  C   C1440     1.0  0.28214  0.11548  0.50000  1.0000
  C   C1441     1.0  0.05121  0.11548  0.50000  1.0000
  C   C1442     1.0  0.05121  0.21787  0.50000  1.0000
  C   C1443     1.0  0.00000  0.11548  0.55121  1.0000
  C   C1444     1.0  0.00000  0.11548  0.44881  1.0000
  C   C1445     1.0  0.00000  0.21787  0.44881  1.0000
  C   C1446     1.0  0.00000  0.21787  0.55121  1.0000
  C   C1447     1.0  0.21787  0.00000  0.44881  1.0000
  C   C1448     1.0  0.11548  0.00000  0.44881  1.0000
  C   C1449     1.0  0.11548  0.00000  0.55121  1.0000
  C   C1450     1.0  0.21787  0.00000  0.55121  1.0000
  C   C1451     1.0  0.11548  0.05121  0.50000  1.0000
  C   C1452     1.0  0.11548  0.28214  0.50000  1.0000
  C   C1453     1.0  0.21787  0.28214  0.50000  1.0000
  C   C1454     1.0  0.21787  0.05121  0.50000  1.0000
  C   C1455     1.0  0.16667  0.28214  0.55121  1.0000
  C   C1456     1.0  0.16667  0.28214  0.44881  1.0000
  C   C1457     1.0  0.16667  0.05121  0.44881  1.0000
  C   C1458     1.0  0.16667  0.05121  0.55121  1.0000
  C   C1459     1.0  0.21787  0.16667  0.61548  1.0000
  C   C1460     1.0  0.11548  0.16667  0.61548  1.0000
  C   C1461     1.0  0.11548  0.16667  0.38454  1.0000
  C   C1462     1.0  0.21787  0.16667  0.38454  1.0000
  C   C1463     1.0  0.11548  0.21787  0.33333  1.0000
  C   C1464     1.0  0.11548  0.11548  0.33333  1.0000
  C   C1465     1.0  0.21787  0.11548  0.33333  1.0000
  C   C1466     1.0  0.21787  0.21787  0.33333  1.0000
  C   C1467     1.0  0.16667  0.11548  0.38454  1.0000
  C   C1468     1.0  0.16667  0.11548  0.61548  1.0000
  C   C1469     1.0  0.16667  0.21787  0.61548  1.0000
  C   C1470     1.0  0.16667  0.21787  0.38454  1.0000
  C   C1471     1.0  0.06834  0.00000  0.40167  1.0000
  C   C1472     1.0  0.26501  0.00000  0.40167  1.0000
  C   C1473     1.0  0.06834  0.00000  0.59834  1.0000
  C   C1474     1.0  0.06834  0.06834  0.33333  1.0000
  C   C1475     1.0  0.06834  0.26501  0.33333  1.0000
  C   C1476     1.0  0.26501  0.26501  0.33333  1.0000
  C   C1477     1.0  0.26501  0.06834  0.33333  1.0000
  C   C1478     1.0  0.00000  0.06834  0.40167  1.0000
  C   C1479     1.0  0.00000  0.26501  0.59834  1.0000
  C   C1480     1.0  0.00000  0.26501  0.40167  1.0000
  C   C1481     1.0  0.26501  0.16667  0.56834  1.0000
  C   C1482     1.0  0.26501  0.16667  0.43167  1.0000
  C   C1483     1.0  0.06834  0.16667  0.43167  1.0000
  C   C1484     1.0  0.06834  0.23501  0.50000  1.0000
  C   C1485     1.0  0.06834  0.09834  0.50000  1.0000
  C   C1486     1.0  0.26501  0.23501  0.50000  1.0000
  C   C1487     1.0  0.00000  0.23501  0.56834  1.0000
  C   C1488     1.0  0.00000  0.23501  0.43167  1.0000
  C   C1489     1.0  0.00000  0.09834  0.43167  1.0000
  C   C1490     1.0  0.09834  0.00000  0.56834  1.0000
  C   C1491     1.0  0.09834  0.00000  0.43167  1.0000
  C   C1492     1.0  0.23501  0.00000  0.43167  1.0000
  C   C1493     1.0  0.23501  0.26501  0.50000  1.0000
  C   C1494     1.0  0.09834  0.26501  0.50000  1.0000
  C   C1495     1.0  0.09834  0.06834  0.50000  1.0000
  C   C1496     1.0  0.16667  0.06834  0.56834  1.0000
  C   C1497     1.0  0.16667  0.06834  0.43167  1.0000
  C   C1498     1.0  0.16667  0.26501  0.43167  1.0000
  C   C1499     1.0  0.16667  0.26501  0.56834  1.0000
  C   C1500     1.0  0.23501  0.16667  0.40167  1.0000
  C   C1501     1.0  0.09834  0.16667  0.40167  1.0000
  C   C1502     1.0  0.23501  0.16667  0.59834  1.0000
  C   C1503     1.0  0.23501  0.23501  0.33333  1.0000
  C   C1504     1.0  0.23501  0.09834  0.33333  1.0000
  C   C1505     1.0  0.09834  0.09834  0.33333  1.0000
  C   C1506     1.0  0.09834  0.23501  0.33333  1.0000
  C   C1507     1.0  0.16667  0.23501  0.40167  1.0000
  C   C1508     1.0  0.16667  0.23501  0.59834  1.0000
  C   C1509     1.0  0.16667  0.09834  0.59834  1.0000
  C   C1510     1.0  0.16667  0.09834  0.40167  1.0000
  C   C1511     1.0  0.08916  0.00000  0.39480  1.0000
  C   C1512     1.0  0.24417  0.00000  0.39480  1.0000
  C   C1513     1.0  0.08916  0.00000  0.60520  1.0000
  C   C1514     1.0  0.06147  0.08916  0.33333  1.0000
  C   C1515     1.0  0.06147  0.24417  0.33333  1.0000
  C   C1516     1.0  0.27187  0.24417  0.33333  1.0000
  C   C1517     1.0  0.27187  0.08916  0.33333  1.0000
  C   C1518     1.0  0.00000  0.06147  0.42250  1.0000
  C   C1519     1.0  0.00000  0.27187  0.57750  1.0000
  C   C1520     1.0  0.00000  0.27187  0.42250  1.0000
  C   C1521     1.0  0.00000  0.24417  0.60520  1.0000
  C   C1522     1.0  0.00000  0.24417  0.39480  1.0000
  C   C1523     1.0  0.00000  0.08916  0.39480  1.0000
  C   C1524     1.0  0.08916  0.06147  0.33333  1.0000
  C   C1525     1.0  0.24417  0.06147  0.33333  1.0000
  C   C1526     1.0  0.24417  0.27187  0.33333  1.0000
  C   C1527     1.0  0.08916  0.27187  0.33333  1.0000
  C   C1528     1.0  0.06147  0.00000  0.57750  1.0000
  C   C1529     1.0  0.06147  0.00000  0.42250  1.0000
  C   C1530     1.0  0.27187  0.00000  0.42250  1.0000
  C   C1531     1.0  0.24417  0.16667  0.56147  1.0000
  C   C1532     1.0  0.24417  0.16667  0.43853  1.0000
  C   C1533     1.0  0.08916  0.16667  0.43853  1.0000
  C   C1534     1.0  0.06147  0.25585  0.50000  1.0000
  C   C1535     1.0  0.06147  0.07750  0.50000  1.0000
  C   C1536     1.0  0.27187  0.25585  0.50000  1.0000
  C   C1537     1.0  0.00000  0.22813  0.58918  1.0000
  C   C1538     1.0  0.00000  0.22813  0.41084  1.0000
  C   C1539     1.0  0.00000  0.10520  0.41084  1.0000
  C   C1540     1.0  0.00000  0.25585  0.43853  1.0000
  C   C1541     1.0  0.00000  0.07750  0.43853  1.0000
  C   C1542     1.0  0.00000  0.25585  0.56147  1.0000
  C   C1543     1.0  0.08916  0.22813  0.50000  1.0000
  C   C1544     1.0  0.24417  0.22813  0.50000  1.0000
  C   C1545     1.0  0.08916  0.10520  0.50000  1.0000
  C   C1546     1.0  0.06147  0.16667  0.41084  1.0000
  C   C1547     1.0  0.27187  0.16667  0.58918  1.0000
  C   C1548     1.0  0.27187  0.16667  0.41084  1.0000
  C   C1549     1.0  0.07750  0.00000  0.56147  1.0000
  C   C1550     1.0  0.07750  0.00000  0.43853  1.0000
  C   C1551     1.0  0.25585  0.00000  0.43853  1.0000
  C   C1552     1.0  0.22813  0.24417  0.50000  1.0000
  C   C1553     1.0  0.10520  0.24417  0.50000  1.0000
  C   C1554     1.0  0.10520  0.08916  0.50000  1.0000
  C   C1555     1.0  0.16667  0.06147  0.58918  1.0000
  C   C1556     1.0  0.16667  0.06147  0.41084  1.0000
  C   C1557     1.0  0.16667  0.27187  0.41084  1.0000
  C   C1558     1.0  0.16667  0.27187  0.58918  1.0000
  C   C1559     1.0  0.16667  0.08916  0.43853  1.0000
  C   C1560     1.0  0.16667  0.24417  0.43853  1.0000
  C   C1561     1.0  0.16667  0.24417  0.56147  1.0000
  C   C1562     1.0  0.16667  0.08916  0.56147  1.0000
  C   C1563     1.0  0.07750  0.06147  0.50000  1.0000
  C   C1564     1.0  0.07750  0.27187  0.50000  1.0000
  C   C1565     1.0  0.25585  0.27187  0.50000  1.0000
  C   C1566     1.0  0.22813  0.00000  0.41084  1.0000
  C   C1567     1.0  0.10520  0.00000  0.58918  1.0000
  C   C1568     1.0  0.10520  0.00000  0.41084  1.0000
  C   C1569     1.0  0.25585  0.16667  0.39480  1.0000
  C   C1570     1.0  0.07750  0.16667  0.39480  1.0000
  C   C1571     1.0  0.25585  0.16667  0.60520  1.0000
  C   C1572     1.0  0.22813  0.25585  0.33333  1.0000
  C   C1573     1.0  0.22813  0.07750  0.33333  1.0000
  C   C1574     1.0  0.10520  0.07750  0.33333  1.0000
  C   C1575     1.0  0.10520  0.25585  0.33333  1.0000
  C   C1576     1.0  0.16667  0.22813  0.42250  1.0000
  C   C1577     1.0  0.16667  0.22813  0.57750  1.0000
  C   C1578     1.0  0.16667  0.10520  0.57750  1.0000
  C   C1579     1.0  0.16667  0.10520  0.42250  1.0000
  C   C1580     1.0  0.16667  0.25585  0.60520  1.0000
  C   C1581     1.0  0.16667  0.07750  0.60520  1.0000
  C   C1582     1.0  0.16667  0.07750  0.39480  1.0000
  C   C1583     1.0  0.16667  0.25585  0.39480  1.0000
  C   C1584     1.0  0.25585  0.22813  0.33333  1.0000
  C   C1585     1.0  0.07750  0.22813  0.33333  1.0000
  C   C1586     1.0  0.07750  0.10520  0.33333  1.0000
  C   C1587     1.0  0.25585  0.10520  0.33333  1.0000
  C   C1588     1.0  0.22813  0.16667  0.57750  1.0000
  C   C1589     1.0  0.22813  0.16667  0.42250  1.0000
  C   C1590     1.0  0.10520  0.16667  0.42250  1.0000
  H   H661      1.0  0.09301  0.00000  0.37863  1.0000
  H   H662      1.0  0.24032  0.00000  0.37863  1.0000
  H   H663      1.0  0.09301  0.00000  0.62137  1.0000
  H   H664      1.0  0.04530  0.09301  0.33333  1.0000
  H   H665      1.0  0.04530  0.24032  0.33333  1.0000
  H   H666      1.0  0.28804  0.24032  0.33333  1.0000
  H   H667      1.0  0.28804  0.09301  0.33333  1.0000
  H   H668      1.0  0.00000  0.04530  0.42634  1.0000
  H   H669      1.0  0.00000  0.28804  0.57366  1.0000
  H   H670      1.0  0.00000  0.28804  0.42634  1.0000
  H   H671      1.0  0.00000  0.24032  0.62137  1.0000
  H   H672      1.0  0.00000  0.24032  0.37863  1.0000
  H   H673      1.0  0.00000  0.09301  0.37863  1.0000
  H   H674      1.0  0.09301  0.04530  0.33333  1.0000
  H   H675      1.0  0.24032  0.04530  0.33333  1.0000
  H   H676      1.0  0.24032  0.28804  0.33333  1.0000
  H   H677      1.0  0.09301  0.28804  0.33333  1.0000
  H   H678      1.0  0.04530  0.00000  0.57366  1.0000
  H   H679      1.0  0.04530  0.00000  0.42634  1.0000
  H   H680      1.0  0.28804  0.00000  0.42634  1.0000
  H   H681      1.0  0.24032  0.16667  0.54530  1.0000
  H   H682      1.0  0.24032  0.16667  0.45470  1.0000
  H   H683      1.0  0.09301  0.16667  0.45470  1.0000
  H   H684      1.0  0.04530  0.25968  0.50000  1.0000
  H   H685      1.0  0.04530  0.07366  0.50000  1.0000
  H   H686      1.0  0.28804  0.25968  0.50000  1.0000
  H   H687      1.0  0.00000  0.21196  0.59301  1.0000
  H   H688      1.0  0.00000  0.21196  0.40699  1.0000
  H   H689      1.0  0.00000  0.12137  0.40699  1.0000
  H   H690      1.0  0.00000  0.25968  0.45470  1.0000
  H   H691      1.0  0.00000  0.07366  0.45470  1.0000
  H   H692      1.0  0.00000  0.25968  0.54530  1.0000
  H   H693      1.0  0.09301  0.21196  0.50000  1.0000
  H   H694      1.0  0.24032  0.21196  0.50000  1.0000
  H   H695      1.0  0.09301  0.12137  0.50000  1.0000
  H   H696      1.0  0.04530  0.16667  0.40699  1.0000
  H   H697      1.0  0.28804  0.16667  0.59301  1.0000
  H   H698      1.0  0.28804  0.16667  0.40699  1.0000
  H   H699      1.0  0.07366  0.00000  0.54530  1.0000
  H   H700      1.0  0.07366  0.00000  0.45470  1.0000
  H   H701      1.0  0.25968  0.00000  0.45470  1.0000
  H   H702      1.0  0.21196  0.24032  0.50000  1.0000
  H   H703      1.0  0.12137  0.24032  0.50000  1.0000
  H   H704      1.0  0.12137  0.09301  0.50000  1.0000
  H   H705      1.0  0.16667  0.04530  0.59301  1.0000
  H   H706      1.0  0.16667  0.04530  0.40699  1.0000
  H   H707      1.0  0.16667  0.28804  0.40699  1.0000
  H   H708      1.0  0.16667  0.28804  0.59301  1.0000
  H   H709      1.0  0.16667  0.09301  0.45470  1.0000
  H   H710      1.0  0.16667  0.24032  0.45470  1.0000
  H   H711      1.0  0.16667  0.24032  0.54530  1.0000
  H   H712      1.0  0.16667  0.09301  0.54530  1.0000
  H   H713      1.0  0.07366  0.04530  0.50000  1.0000
  H   H714      1.0  0.07366  0.28804  0.50000  1.0000
  H   H715      1.0  0.25968  0.28804  0.50000  1.0000
  H   H716      1.0  0.21196  0.00000  0.40699  1.0000
  H   H717      1.0  0.12137  0.00000  0.59301  1.0000
  H   H718      1.0  0.12137  0.00000  0.40699  1.0000
  H   H719      1.0  0.25968  0.16667  0.37863  1.0000
  H   H720      1.0  0.07366  0.16667  0.37863  1.0000
  H   H721      1.0  0.25968  0.16667  0.62137  1.0000
  H   H722      1.0  0.21196  0.25968  0.33333  1.0000
  H   H723      1.0  0.21196  0.07366  0.33333  1.0000
  H   H724      1.0  0.12137  0.07366  0.33333  1.0000
  H   H725      1.0  0.12137  0.25968  0.33333  1.0000
  H   H726      1.0  0.16667  0.21196  0.42634  1.0000
  H   H727      1.0  0.16667  0.21196  0.57366  1.0000
  H   H728      1.0  0.16667  0.12137  0.57366  1.0000
  H   H729      1.0  0.16667  0.12137  0.42634  1.0000
  H   H730      1.0  0.16667  0.25968  0.62137  1.0000
  H   H731      1.0  0.16667  0.07366  0.62137  1.0000
  H   H732      1.0  0.16667  0.07366  0.37863  1.0000
  H   H733      1.0  0.16667  0.25968  0.37863  1.0000
  H   H734      1.0  0.25968  0.21196  0.33333  1.0000
  H   H735      1.0  0.07366  0.21196  0.33333  1.0000
  H   H736      1.0  0.07366  0.12137  0.33333  1.0000
  H   H737      1.0  0.25968  0.12137  0.33333  1.0000
  H   H738      1.0  0.21196  0.16667  0.57366  1.0000
  H   H739      1.0  0.21196  0.16667  0.42634  1.0000
  H   H740      1.0  0.12137  0.16667  0.42634  1.0000
  Zr  Zr241     1.0  0.03997  0.33333  0.33333  1.0000
  Zr  Zr242     1.0  0.29338  0.33333  0.33333  1.0000
  Zr  Zr243     1.0  0.00000  0.37330  0.33333  1.0000
  Zr  Zr244     1.0  0.00000  0.62671  0.33333  1.0000
  Zr  Zr245     1.0  0.00000  0.33333  0.37330  1.0000
  Zr  Zr246     1.0  0.00000  0.33333  0.62671  1.0000
  Zr  Zr247     1.0  0.03997  0.50000  0.50000  1.0000
  Zr  Zr248     1.0  0.29338  0.50000  0.50000  1.0000
  Zr  Zr249     1.0  0.00000  0.53997  0.50000  1.0000
  Zr  Zr250     1.0  0.00000  0.46003  0.50000  1.0000
  Zr  Zr251     1.0  0.00000  0.50000  0.53997  1.0000
  Zr  Zr252     1.0  0.00000  0.50000  0.46003  1.0000
  Zr  Zr253     1.0  0.20663  0.33333  0.50000  1.0000
  Zr  Zr254     1.0  0.12670  0.33333  0.50000  1.0000
  Zr  Zr255     1.0  0.16667  0.37330  0.50000  1.0000
  Zr  Zr256     1.0  0.16667  0.62671  0.50000  1.0000
  Zr  Zr257     1.0  0.16667  0.33333  0.53997  1.0000
  Zr  Zr258     1.0  0.16667  0.33333  0.46003  1.0000
  Zr  Zr259     1.0  0.20663  0.50000  0.33333  1.0000
  Zr  Zr260     1.0  0.12670  0.50000  0.33333  1.0000
  Zr  Zr261     1.0  0.16667  0.53997  0.33333  1.0000
  Zr  Zr262     1.0  0.16667  0.46003  0.33333  1.0000
  Zr  Zr263     1.0  0.16667  0.50000  0.37330  1.0000
  Zr  Zr264     1.0  0.16667  0.50000  0.62671  1.0000
  O   O1281     1.0  0.05683  0.33333  0.36510  1.0000
  O   O1282     1.0  0.27652  0.33333  0.36510  1.0000
  O   O1283     1.0  0.27652  0.33333  0.63491  1.0000
  O   O1284     1.0  0.05683  0.33333  0.63491  1.0000
  O   O1285     1.0  0.03177  0.39016  0.33333  1.0000
  O   O1286     1.0  0.03177  0.60986  0.33333  1.0000
  O   O1287     1.0  0.30158  0.60986  0.33333  1.0000
  O   O1288     1.0  0.30158  0.39016  0.33333  1.0000
  O   O1289     1.0  0.00000  0.36510  0.39016  1.0000
  O   O1290     1.0  0.00000  0.36510  0.60986  1.0000
  O   O1291     1.0  0.00000  0.63491  0.60986  1.0000
  O   O1292     1.0  0.00000  0.63491  0.39016  1.0000
  O   O1293     1.0  0.00000  0.39016  0.63491  1.0000
  O   O1294     1.0  0.00000  0.60986  0.63491  1.0000
  O   O1295     1.0  0.00000  0.60986  0.36510  1.0000
  O   O1296     1.0  0.00000  0.39016  0.36510  1.0000
  O   O1297     1.0  0.05683  0.36510  0.33333  1.0000
  O   O1298     1.0  0.27652  0.36510  0.33333  1.0000
  O   O1299     1.0  0.27652  0.63491  0.33333  1.0000
  O   O1300     1.0  0.05683  0.63491  0.33333  1.0000
  O   O1301     1.0  0.03177  0.33333  0.60986  1.0000
  O   O1302     1.0  0.03177  0.33333  0.39016  1.0000
  O   O1303     1.0  0.30158  0.33333  0.39016  1.0000
  O   O1304     1.0  0.30158  0.33333  0.60986  1.0000
  O   O1305     1.0  0.05683  0.50000  0.53177  1.0000
  O   O1306     1.0  0.27652  0.50000  0.53177  1.0000
  O   O1307     1.0  0.27652  0.50000  0.46823  1.0000
  O   O1308     1.0  0.05683  0.50000  0.46823  1.0000
  O   O1309     1.0  0.03177  0.55683  0.50000  1.0000
  O   O1310     1.0  0.03177  0.44317  0.50000  1.0000
  O   O1311     1.0  0.30158  0.44317  0.50000  1.0000
  O   O1312     1.0  0.30158  0.55683  0.50000  1.0000
  O   O1313     1.0  0.00000  0.53177  0.55683  1.0000
  O   O1314     1.0  0.00000  0.53177  0.44317  1.0000
  O   O1315     1.0  0.00000  0.46823  0.44317  1.0000
  O   O1316     1.0  0.00000  0.46823  0.55683  1.0000
  O   O1317     1.0  0.00000  0.55683  0.46823  1.0000
  O   O1318     1.0  0.00000  0.44317  0.46823  1.0000
  O   O1319     1.0  0.00000  0.44317  0.53177  1.0000
  O   O1320     1.0  0.00000  0.55683  0.53177  1.0000
  O   O1321     1.0  0.05683  0.53177  0.50000  1.0000
  O   O1322     1.0  0.27652  0.53177  0.50000  1.0000
  O   O1323     1.0  0.27652  0.46823  0.50000  1.0000
  O   O1324     1.0  0.05683  0.46823  0.50000  1.0000
  O   O1325     1.0  0.03177  0.50000  0.44317  1.0000
  O   O1326     1.0  0.03177  0.50000  0.55683  1.0000
  O   O1327     1.0  0.30158  0.50000  0.55683  1.0000
  O   O1328     1.0  0.30158  0.50000  0.44317  1.0000
  O   O1329     1.0  0.22349  0.33333  0.53177  1.0000
  O   O1330     1.0  0.10984  0.33333  0.53177  1.0000
  O   O1331     1.0  0.10984  0.33333  0.46823  1.0000
  O   O1332     1.0  0.22349  0.33333  0.46823  1.0000
  O   O1333     1.0  0.19844  0.39016  0.50000  1.0000
  O   O1334     1.0  0.19844  0.60986  0.50000  1.0000
  O   O1335     1.0  0.13490  0.60986  0.50000  1.0000
  O   O1336     1.0  0.13490  0.39016  0.50000  1.0000
  O   O1337     1.0  0.16667  0.36510  0.55683  1.0000
  O   O1338     1.0  0.16667  0.36510  0.44317  1.0000
  O   O1339     1.0  0.16667  0.63491  0.44317  1.0000
  O   O1340     1.0  0.16667  0.63491  0.55683  1.0000
  O   O1341     1.0  0.16667  0.39016  0.46823  1.0000
  O   O1342     1.0  0.16667  0.60986  0.46823  1.0000
  O   O1343     1.0  0.16667  0.60986  0.53177  1.0000
  O   O1344     1.0  0.16667  0.39016  0.53177  1.0000
  O   O1345     1.0  0.22349  0.36510  0.50000  1.0000
  O   O1346     1.0  0.10984  0.36510  0.50000  1.0000
  O   O1347     1.0  0.10984  0.63491  0.50000  1.0000
  O   O1348     1.0  0.22349  0.63491  0.50000  1.0000
  O   O1349     1.0  0.19844  0.33333  0.44317  1.0000
  O   O1350     1.0  0.19844  0.33333  0.55683  1.0000
  O   O1351     1.0  0.13490  0.33333  0.55683  1.0000
  O   O1352     1.0  0.13490  0.33333  0.44317  1.0000
  O   O1353     1.0  0.22349  0.50000  0.36510  1.0000
  O   O1354     1.0  0.10984  0.50000  0.36510  1.0000
  O   O1355     1.0  0.10984  0.50000  0.63491  1.0000
  O   O1356     1.0  0.22349  0.50000  0.63491  1.0000
  O   O1357     1.0  0.19844  0.55683  0.33333  1.0000
  O   O1358     1.0  0.19844  0.44317  0.33333  1.0000
  O   O1359     1.0  0.13490  0.44317  0.33333  1.0000
  O   O1360     1.0  0.13490  0.55683  0.33333  1.0000
  O   O1361     1.0  0.16667  0.53177  0.39016  1.0000
  O   O1362     1.0  0.16667  0.53177  0.60986  1.0000
  O   O1363     1.0  0.16667  0.46823  0.60986  1.0000
  O   O1364     1.0  0.16667  0.46823  0.39016  1.0000
  O   O1365     1.0  0.16667  0.55683  0.63491  1.0000
  O   O1366     1.0  0.16667  0.44317  0.63491  1.0000
  O   O1367     1.0  0.16667  0.44317  0.36510  1.0000
  O   O1368     1.0  0.16667  0.55683  0.36510  1.0000
  O   O1369     1.0  0.22349  0.53177  0.33333  1.0000
  O   O1370     1.0  0.10984  0.53177  0.33333  1.0000
  O   O1371     1.0  0.10984  0.46823  0.33333  1.0000
  O   O1372     1.0  0.22349  0.46823  0.33333  1.0000
  O   O1373     1.0  0.19844  0.50000  0.60986  1.0000
  O   O1374     1.0  0.19844  0.50000  0.39016  1.0000
  O   O1375     1.0  0.13490  0.50000  0.39016  1.0000
  O   O1376     1.0  0.13490  0.50000  0.60986  1.0000
  O   O1377     1.0  0.01870  0.64797  0.64797  1.0000
  O   O1378     1.0  0.31464  0.35203  0.64797  1.0000
  O   O1379     1.0  0.31464  0.64797  0.35203  1.0000
  O   O1380     1.0  0.01870  0.35203  0.35203  1.0000
  O   O1381     1.0  0.31464  0.35203  0.35203  1.0000
  O   O1382     1.0  0.01870  0.64797  0.35203  1.0000
  O   O1383     1.0  0.31464  0.64797  0.64797  1.0000
  O   O1384     1.0  0.01870  0.35203  0.64797  1.0000
  O   O1385     1.0  0.01870  0.48130  0.48130  1.0000
  O   O1386     1.0  0.31464  0.51870  0.48130  1.0000
  O   O1387     1.0  0.31464  0.48130  0.51870  1.0000
  O   O1388     1.0  0.01870  0.51870  0.51870  1.0000
  O   O1389     1.0  0.31464  0.51870  0.51870  1.0000
  O   O1390     1.0  0.01870  0.48130  0.51870  1.0000
  O   O1391     1.0  0.31464  0.48130  0.48130  1.0000
  O   O1392     1.0  0.01870  0.51870  0.48130  1.0000
  O   O1393     1.0  0.18536  0.64797  0.48130  1.0000
  O   O1394     1.0  0.14797  0.35203  0.48130  1.0000
  O   O1395     1.0  0.14797  0.64797  0.51870  1.0000
  O   O1396     1.0  0.18536  0.35203  0.51870  1.0000
  O   O1397     1.0  0.14797  0.35203  0.51870  1.0000
  O   O1398     1.0  0.18536  0.64797  0.51870  1.0000
  O   O1399     1.0  0.14797  0.64797  0.48130  1.0000
  O   O1400     1.0  0.18536  0.35203  0.48130  1.0000
  O   O1401     1.0  0.18536  0.48130  0.64797  1.0000
  O   O1402     1.0  0.14797  0.51870  0.64797  1.0000
  O   O1403     1.0  0.14797  0.48130  0.35203  1.0000
  O   O1404     1.0  0.18536  0.51870  0.35203  1.0000
  O   O1405     1.0  0.14797  0.51870  0.35203  1.0000
  O   O1406     1.0  0.18536  0.48130  0.35203  1.0000
  O   O1407     1.0  0.14797  0.48130  0.64797  1.0000
  O   O1408     1.0  0.18536  0.51870  0.64797  1.0000
  C   C1591     1.0  0.05121  0.33333  0.61548  1.0000
  C   C1592     1.0  0.28214  0.33333  0.61548  1.0000
  C   C1593     1.0  0.28214  0.33333  0.38454  1.0000
  C   C1594     1.0  0.05121  0.33333  0.38454  1.0000
  C   C1595     1.0  0.28214  0.38454  0.33333  1.0000
  C   C1596     1.0  0.28214  0.61548  0.33333  1.0000
  C   C1597     1.0  0.05121  0.61548  0.33333  1.0000
  C   C1598     1.0  0.05121  0.38454  0.33333  1.0000
  C   C1599     1.0  0.00000  0.61548  0.38454  1.0000
  C   C1600     1.0  0.00000  0.61548  0.61548  1.0000
  C   C1601     1.0  0.00000  0.38454  0.61548  1.0000
  C   C1602     1.0  0.00000  0.38454  0.38454  1.0000
  C   C1603     1.0  0.05121  0.50000  0.44881  1.0000
  C   C1604     1.0  0.28214  0.50000  0.44881  1.0000
  C   C1605     1.0  0.28214  0.50000  0.55121  1.0000
  C   C1606     1.0  0.05121  0.50000  0.55121  1.0000
  C   C1607     1.0  0.28214  0.55121  0.50000  1.0000
  C   C1608     1.0  0.28214  0.44881  0.50000  1.0000
  C   C1609     1.0  0.05121  0.44881  0.50000  1.0000
  C   C1610     1.0  0.05121  0.55121  0.50000  1.0000
  C   C1611     1.0  0.00000  0.44881  0.55121  1.0000
  C   C1612     1.0  0.00000  0.44881  0.44881  1.0000
  C   C1613     1.0  0.00000  0.55121  0.44881  1.0000
  C   C1614     1.0  0.00000  0.55121  0.55121  1.0000
  C   C1615     1.0  0.21787  0.33333  0.44881  1.0000
  C   C1616     1.0  0.11548  0.33333  0.44881  1.0000
  C   C1617     1.0  0.11548  0.33333  0.55121  1.0000
  C   C1618     1.0  0.21787  0.33333  0.55121  1.0000
  C   C1619     1.0  0.11548  0.38454  0.50000  1.0000
  C   C1620     1.0  0.11548  0.61548  0.50000  1.0000
  C   C1621     1.0  0.21787  0.61548  0.50000  1.0000
  C   C1622     1.0  0.21787  0.38454  0.50000  1.0000
  C   C1623     1.0  0.16667  0.61548  0.55121  1.0000
  C   C1624     1.0  0.16667  0.61548  0.44881  1.0000
  C   C1625     1.0  0.16667  0.38454  0.44881  1.0000
  C   C1626     1.0  0.16667  0.38454  0.55121  1.0000
  C   C1627     1.0  0.21787  0.50000  0.61548  1.0000
  C   C1628     1.0  0.11548  0.50000  0.61548  1.0000
  C   C1629     1.0  0.11548  0.50000  0.38454  1.0000
  C   C1630     1.0  0.21787  0.50000  0.38454  1.0000
  C   C1631     1.0  0.11548  0.55121  0.33333  1.0000
  C   C1632     1.0  0.11548  0.44881  0.33333  1.0000
  C   C1633     1.0  0.21787  0.44881  0.33333  1.0000
  C   C1634     1.0  0.21787  0.55121  0.33333  1.0000
  C   C1635     1.0  0.16667  0.44881  0.38454  1.0000
  C   C1636     1.0  0.16667  0.44881  0.61548  1.0000
  C   C1637     1.0  0.16667  0.55121  0.61548  1.0000
  C   C1638     1.0  0.16667  0.55121  0.38454  1.0000
  C   C1639     1.0  0.06834  0.33333  0.40167  1.0000
  C   C1640     1.0  0.26501  0.33333  0.40167  1.0000
  C   C1641     1.0  0.26501  0.33333  0.59834  1.0000
  C   C1642     1.0  0.06834  0.33333  0.59834  1.0000
  C   C1643     1.0  0.06834  0.59834  0.33333  1.0000
  C   C1644     1.0  0.26501  0.59834  0.33333  1.0000
  C   C1645     1.0  0.26501  0.40167  0.33333  1.0000
  C   C1646     1.0  0.00000  0.40167  0.40167  1.0000
  C   C1647     1.0  0.00000  0.40167  0.59834  1.0000
  C   C1648     1.0  0.00000  0.59834  0.59834  1.0000
  C   C1649     1.0  0.00000  0.59834  0.40167  1.0000
  C   C1650     1.0  0.26501  0.50000  0.56834  1.0000
  C   C1651     1.0  0.26501  0.50000  0.43167  1.0000
  C   C1652     1.0  0.06834  0.50000  0.43167  1.0000
  C   C1653     1.0  0.06834  0.43167  0.50000  1.0000
  C   C1654     1.0  0.26501  0.56834  0.50000  1.0000
  C   C1655     1.0  0.00000  0.56834  0.56834  1.0000
  C   C1656     1.0  0.00000  0.56834  0.43167  1.0000
  C   C1657     1.0  0.00000  0.43167  0.43167  1.0000
  C   C1658     1.0  0.00000  0.43167  0.56834  1.0000
  C   C1659     1.0  0.23501  0.33333  0.56834  1.0000
  C   C1660     1.0  0.09834  0.33333  0.56834  1.0000
  C   C1661     1.0  0.09834  0.33333  0.43167  1.0000
  C   C1662     1.0  0.23501  0.33333  0.43167  1.0000
  C   C1663     1.0  0.23501  0.59834  0.50000  1.0000
  C   C1664     1.0  0.09834  0.40167  0.50000  1.0000
  C   C1665     1.0  0.16667  0.40167  0.56834  1.0000
  C   C1666     1.0  0.16667  0.40167  0.43167  1.0000
  C   C1667     1.0  0.16667  0.59834  0.43167  1.0000
  C   C1668     1.0  0.16667  0.59834  0.56834  1.0000
  C   C1669     1.0  0.23501  0.50000  0.40167  1.0000
  C   C1670     1.0  0.09834  0.50000  0.40167  1.0000
  C   C1671     1.0  0.23501  0.50000  0.59834  1.0000
  C   C1672     1.0  0.23501  0.56834  0.33333  1.0000
  C   C1673     1.0  0.23501  0.43167  0.33333  1.0000
  C   C1674     1.0  0.09834  0.56834  0.33333  1.0000
  C   C1675     1.0  0.16667  0.56834  0.40167  1.0000
  C   C1676     1.0  0.16667  0.56834  0.59834  1.0000
  C   C1677     1.0  0.16667  0.43167  0.59834  1.0000
  C   C1678     1.0  0.16667  0.43167  0.40167  1.0000
  C   C1679     1.0  0.08916  0.33333  0.39480  1.0000
  C   C1680     1.0  0.24417  0.33333  0.39480  1.0000
  C   C1681     1.0  0.24417  0.33333  0.60520  1.0000
  C   C1682     1.0  0.08916  0.33333  0.60520  1.0000
  C   C1683     1.0  0.06147  0.57750  0.33333  1.0000
  C   C1684     1.0  0.27187  0.57750  0.33333  1.0000
  C   C1685     1.0  0.27187  0.42250  0.33333  1.0000
  C   C1686     1.0  0.00000  0.39480  0.42250  1.0000
  C   C1687     1.0  0.00000  0.39480  0.57750  1.0000
  C   C1688     1.0  0.00000  0.60520  0.57750  1.0000
  C   C1689     1.0  0.00000  0.60520  0.42250  1.0000
  C   C1690     1.0  0.00000  0.42250  0.60520  1.0000
  C   C1691     1.0  0.00000  0.57750  0.60520  1.0000
  C   C1692     1.0  0.00000  0.57750  0.39480  1.0000
  C   C1693     1.0  0.00000  0.42250  0.39480  1.0000
  C   C1694     1.0  0.24417  0.39480  0.33333  1.0000
  C   C1695     1.0  0.24417  0.60520  0.33333  1.0000
  C   C1696     1.0  0.08916  0.60520  0.33333  1.0000
  C   C1697     1.0  0.06147  0.33333  0.57750  1.0000
  C   C1698     1.0  0.06147  0.33333  0.42250  1.0000
  C   C1699     1.0  0.27187  0.33333  0.42250  1.0000
  C   C1700     1.0  0.27187  0.33333  0.57750  1.0000
  C   C1701     1.0  0.24417  0.50000  0.56147  1.0000
  C   C1702     1.0  0.24417  0.50000  0.43853  1.0000
  C   C1703     1.0  0.08916  0.50000  0.43853  1.0000
  C   C1704     1.0  0.06147  0.41084  0.50000  1.0000
  C   C1705     1.0  0.27187  0.58918  0.50000  1.0000
  C   C1706     1.0  0.00000  0.56147  0.58918  1.0000
  C   C1707     1.0  0.00000  0.56147  0.41084  1.0000
  C   C1708     1.0  0.00000  0.43853  0.41084  1.0000
  C   C1709     1.0  0.00000  0.43853  0.58918  1.0000
  C   C1710     1.0  0.00000  0.58918  0.43853  1.0000
  C   C1711     1.0  0.00000  0.41084  0.43853  1.0000
  C   C1712     1.0  0.00000  0.41084  0.56147  1.0000
  C   C1713     1.0  0.00000  0.58918  0.56147  1.0000
  C   C1714     1.0  0.24417  0.56147  0.50000  1.0000
  C   C1715     1.0  0.08916  0.43853  0.50000  1.0000
  C   C1716     1.0  0.06147  0.50000  0.41084  1.0000
  C   C1717     1.0  0.27187  0.50000  0.58918  1.0000
  C   C1718     1.0  0.27187  0.50000  0.41084  1.0000
  C   C1719     1.0  0.25585  0.33333  0.56147  1.0000
  C   C1720     1.0  0.07750  0.33333  0.56147  1.0000
  C   C1721     1.0  0.07750  0.33333  0.43853  1.0000
  C   C1722     1.0  0.25585  0.33333  0.43853  1.0000
  C   C1723     1.0  0.22813  0.57750  0.50000  1.0000
  C   C1724     1.0  0.10520  0.42250  0.50000  1.0000
  C   C1725     1.0  0.16667  0.39480  0.58918  1.0000
  C   C1726     1.0  0.16667  0.39480  0.41084  1.0000
  C   C1727     1.0  0.16667  0.60520  0.41084  1.0000
  C   C1728     1.0  0.16667  0.60520  0.58918  1.0000
  C   C1729     1.0  0.16667  0.42250  0.43853  1.0000
  C   C1730     1.0  0.16667  0.57750  0.43853  1.0000
  C   C1731     1.0  0.16667  0.57750  0.56147  1.0000
  C   C1732     1.0  0.16667  0.42250  0.56147  1.0000
  C   C1733     1.0  0.07750  0.39480  0.50000  1.0000
  C   C1734     1.0  0.25585  0.60520  0.50000  1.0000
  C   C1735     1.0  0.22813  0.33333  0.41084  1.0000
  C   C1736     1.0  0.22813  0.33333  0.58918  1.0000
  C   C1737     1.0  0.10520  0.33333  0.58918  1.0000
  C   C1738     1.0  0.10520  0.33333  0.41084  1.0000
  C   C1739     1.0  0.25585  0.50000  0.39480  1.0000
  C   C1740     1.0  0.07750  0.50000  0.39480  1.0000
  C   C1741     1.0  0.25585  0.50000  0.60520  1.0000
  C   C1742     1.0  0.22813  0.58918  0.33333  1.0000
  C   C1743     1.0  0.22813  0.41084  0.33333  1.0000
  C   C1744     1.0  0.10520  0.58918  0.33333  1.0000
  C   C1745     1.0  0.16667  0.56147  0.42250  1.0000
  C   C1746     1.0  0.16667  0.56147  0.57750  1.0000
  C   C1747     1.0  0.16667  0.43853  0.57750  1.0000
  C   C1748     1.0  0.16667  0.43853  0.42250  1.0000
  C   C1749     1.0  0.16667  0.58918  0.60520  1.0000
  C   C1750     1.0  0.16667  0.41084  0.60520  1.0000
  C   C1751     1.0  0.16667  0.41084  0.39480  1.0000
  C   C1752     1.0  0.16667  0.58918  0.39480  1.0000
  C   C1753     1.0  0.25585  0.56147  0.33333  1.0000
  C   C1754     1.0  0.07750  0.56147  0.33333  1.0000
  C   C1755     1.0  0.25585  0.43853  0.33333  1.0000
  C   C1756     1.0  0.22813  0.50000  0.57750  1.0000
  C   C1757     1.0  0.22813  0.50000  0.42250  1.0000
  C   C1758     1.0  0.10520  0.50000  0.42250  1.0000
  H   H741      1.0  0.09301  0.33333  0.37863  1.0000
  H   H742      1.0  0.24032  0.33333  0.37863  1.0000
  H   H743      1.0  0.24032  0.33333  0.62137  1.0000
  H   H744      1.0  0.09301  0.33333  0.62137  1.0000
  H   H745      1.0  0.04530  0.57366  0.33333  1.0000
  H   H746      1.0  0.28804  0.57366  0.33333  1.0000
  H   H747      1.0  0.28804  0.42634  0.33333  1.0000
  H   H748      1.0  0.00000  0.37863  0.42634  1.0000
  H   H749      1.0  0.00000  0.37863  0.57366  1.0000
  H   H750      1.0  0.00000  0.62137  0.57366  1.0000
  H   H751      1.0  0.00000  0.62137  0.42634  1.0000
  H   H752      1.0  0.00000  0.42634  0.62137  1.0000
  H   H753      1.0  0.00000  0.57366  0.62137  1.0000
  H   H754      1.0  0.00000  0.57366  0.37863  1.0000
  H   H755      1.0  0.00000  0.42634  0.37863  1.0000
  H   H756      1.0  0.24032  0.37863  0.33333  1.0000
  H   H757      1.0  0.24032  0.62137  0.33333  1.0000
  H   H758      1.0  0.09301  0.62137  0.33333  1.0000
  H   H759      1.0  0.04530  0.33333  0.57366  1.0000
  H   H760      1.0  0.04530  0.33333  0.42634  1.0000
  H   H761      1.0  0.28804  0.33333  0.42634  1.0000
  H   H762      1.0  0.28804  0.33333  0.57366  1.0000
  H   H763      1.0  0.24032  0.50000  0.54530  1.0000
  H   H764      1.0  0.24032  0.50000  0.45470  1.0000
  H   H765      1.0  0.09301  0.50000  0.45470  1.0000
  H   H766      1.0  0.04530  0.40699  0.50000  1.0000
  H   H767      1.0  0.28804  0.59301  0.50000  1.0000
  H   H768      1.0  0.00000  0.54530  0.59301  1.0000
  H   H769      1.0  0.00000  0.54530  0.40699  1.0000
  H   H770      1.0  0.00000  0.45470  0.40699  1.0000
  H   H771      1.0  0.00000  0.45470  0.59301  1.0000
  H   H772      1.0  0.00000  0.59301  0.45470  1.0000
  H   H773      1.0  0.00000  0.40699  0.45470  1.0000
  H   H774      1.0  0.00000  0.40699  0.54530  1.0000
  H   H775      1.0  0.00000  0.59301  0.54530  1.0000
  H   H776      1.0  0.24032  0.54530  0.50000  1.0000
  H   H777      1.0  0.09301  0.45470  0.50000  1.0000
  H   H778      1.0  0.04530  0.50000  0.40699  1.0000
  H   H779      1.0  0.28804  0.50000  0.59301  1.0000
  H   H780      1.0  0.28804  0.50000  0.40699  1.0000
  H   H781      1.0  0.25968  0.33333  0.54530  1.0000
  H   H782      1.0  0.07366  0.33333  0.54530  1.0000
  H   H783      1.0  0.07366  0.33333  0.45470  1.0000
  H   H784      1.0  0.25968  0.33333  0.45470  1.0000
  H   H785      1.0  0.21196  0.57366  0.50000  1.0000
  H   H786      1.0  0.12137  0.42634  0.50000  1.0000
  H   H787      1.0  0.16667  0.37863  0.59301  1.0000
  H   H788      1.0  0.16667  0.37863  0.40699  1.0000
  H   H789      1.0  0.16667  0.62137  0.40699  1.0000
  H   H790      1.0  0.16667  0.62137  0.59301  1.0000
  H   H791      1.0  0.16667  0.42634  0.45470  1.0000
  H   H792      1.0  0.16667  0.57366  0.45470  1.0000
  H   H793      1.0  0.16667  0.57366  0.54530  1.0000
  H   H794      1.0  0.16667  0.42634  0.54530  1.0000
  H   H795      1.0  0.07366  0.37863  0.50000  1.0000
  H   H796      1.0  0.25968  0.62137  0.50000  1.0000
  H   H797      1.0  0.21196  0.33333  0.40699  1.0000
  H   H798      1.0  0.21196  0.33333  0.59301  1.0000
  H   H799      1.0  0.12137  0.33333  0.59301  1.0000
  H   H800      1.0  0.12137  0.33333  0.40699  1.0000
  H   H801      1.0  0.25968  0.50000  0.37863  1.0000
  H   H802      1.0  0.07366  0.50000  0.37863  1.0000
  H   H803      1.0  0.25968  0.50000  0.62137  1.0000
  H   H804      1.0  0.21196  0.59301  0.33333  1.0000
  H   H805      1.0  0.21196  0.40699  0.33333  1.0000
  H   H806      1.0  0.12137  0.59301  0.33333  1.0000
  H   H807      1.0  0.16667  0.54530  0.42634  1.0000
  H   H808      1.0  0.16667  0.54530  0.57366  1.0000
  H   H809      1.0  0.16667  0.45470  0.57366  1.0000
  H   H810      1.0  0.16667  0.45470  0.42634  1.0000
  H   H811      1.0  0.16667  0.59301  0.62137  1.0000
  H   H812      1.0  0.16667  0.40699  0.62137  1.0000
  H   H813      1.0  0.16667  0.40699  0.37863  1.0000
  H   H814      1.0  0.16667  0.59301  0.37863  1.0000
  H   H815      1.0  0.25968  0.54530  0.33333  1.0000
  H   H816      1.0  0.07366  0.54530  0.33333  1.0000
  H   H817      1.0  0.25968  0.45470  0.33333  1.0000
  H   H818      1.0  0.21196  0.50000  0.57366  1.0000
  H   H819      1.0  0.21196  0.50000  0.42634  1.0000
  H   H820      1.0  0.12137  0.50000  0.42634  1.0000
  Zr  Zr265     1.0  0.03997  0.66667  0.33333  1.0000
  Zr  Zr266     1.0  0.29338  0.66667  0.33333  1.0000
  Zr  Zr267     1.0  0.00000  0.70663  0.33333  1.0000
  Zr  Zr268     1.0  0.00000  0.96005  0.33333  1.0000
  Zr  Zr269     1.0  0.00000  0.66667  0.37330  1.0000
  Zr  Zr270     1.0  0.00000  0.66667  0.62671  1.0000
  Zr  Zr271     1.0  0.03997  0.83333  0.50000  1.0000
  Zr  Zr272     1.0  0.29338  0.83333  0.50000  1.0000
  Zr  Zr273     1.0  0.00000  0.87330  0.50000  1.0000
  Zr  Zr274     1.0  0.00000  0.79337  0.50000  1.0000
  Zr  Zr275     1.0  0.00000  0.83333  0.53997  1.0000
  Zr  Zr276     1.0  0.00000  0.83333  0.46003  1.0000
  Zr  Zr277     1.0  0.20663  0.66667  0.50000  1.0000
  Zr  Zr278     1.0  0.12670  0.66667  0.50000  1.0000
  Zr  Zr279     1.0  0.16667  0.70663  0.50000  1.0000
  Zr  Zr280     1.0  0.16667  0.96005  0.50000  1.0000
  Zr  Zr281     1.0  0.16667  0.66667  0.53997  1.0000
  Zr  Zr282     1.0  0.16667  0.66667  0.46003  1.0000
  Zr  Zr283     1.0  0.20663  0.83333  0.33333  1.0000
  Zr  Zr284     1.0  0.12670  0.83333  0.33333  1.0000
  Zr  Zr285     1.0  0.16667  0.87330  0.33333  1.0000
  Zr  Zr286     1.0  0.16667  0.79337  0.33333  1.0000
  Zr  Zr287     1.0  0.16667  0.83333  0.37330  1.0000
  Zr  Zr288     1.0  0.16667  0.83333  0.62671  1.0000
  O   O1409     1.0  0.05683  0.66667  0.36510  1.0000
  O   O1410     1.0  0.27652  0.66667  0.36510  1.0000
  O   O1411     1.0  0.27652  0.66667  0.63491  1.0000
  O   O1412     1.0  0.05683  0.66667  0.63491  1.0000
  O   O1413     1.0  0.03177  0.72349  0.33333  1.0000
  O   O1414     1.0  0.03177  0.94319  0.33333  1.0000
  O   O1415     1.0  0.30158  0.94319  0.33333  1.0000
  O   O1416     1.0  0.30158  0.72349  0.33333  1.0000
  O   O1417     1.0  0.00000  0.69844  0.39016  1.0000
  O   O1418     1.0  0.00000  0.69844  0.60986  1.0000
  O   O1419     1.0  0.00000  0.96824  0.60986  1.0000
  O   O1420     1.0  0.00000  0.96824  0.39016  1.0000
  O   O1421     1.0  0.00000  0.72349  0.63491  1.0000
  O   O1422     1.0  0.00000  0.94319  0.63491  1.0000
  O   O1423     1.0  0.00000  0.94319  0.36510  1.0000
  O   O1424     1.0  0.00000  0.72349  0.36510  1.0000
  O   O1425     1.0  0.05683  0.69844  0.33333  1.0000
  O   O1426     1.0  0.27652  0.69844  0.33333  1.0000
  O   O1427     1.0  0.27652  0.96824  0.33333  1.0000
  O   O1428     1.0  0.05683  0.96824  0.33333  1.0000
  O   O1429     1.0  0.03177  0.66667  0.60986  1.0000
  O   O1430     1.0  0.03177  0.66667  0.39016  1.0000
  O   O1431     1.0  0.30158  0.66667  0.39016  1.0000
  O   O1432     1.0  0.30158  0.66667  0.60986  1.0000
  O   O1433     1.0  0.05683  0.83333  0.53177  1.0000
  O   O1434     1.0  0.27652  0.83333  0.53177  1.0000
  O   O1435     1.0  0.27652  0.83333  0.46823  1.0000
  O   O1436     1.0  0.05683  0.83333  0.46823  1.0000
  O   O1437     1.0  0.03177  0.89016  0.50000  1.0000
  O   O1438     1.0  0.03177  0.77651  0.50000  1.0000
  O   O1439     1.0  0.30158  0.77651  0.50000  1.0000
  O   O1440     1.0  0.30158  0.89016  0.50000  1.0000
  O   O1441     1.0  0.00000  0.86510  0.55683  1.0000
  O   O1442     1.0  0.00000  0.86510  0.44317  1.0000
  O   O1443     1.0  0.00000  0.80156  0.44317  1.0000
  O   O1444     1.0  0.00000  0.80156  0.55683  1.0000
  O   O1445     1.0  0.00000  0.89016  0.46823  1.0000
  O   O1446     1.0  0.00000  0.77651  0.46823  1.0000
  O   O1447     1.0  0.00000  0.77651  0.53177  1.0000
  O   O1448     1.0  0.00000  0.89016  0.53177  1.0000
  O   O1449     1.0  0.05683  0.86510  0.50000  1.0000
  O   O1450     1.0  0.27652  0.86510  0.50000  1.0000
  O   O1451     1.0  0.27652  0.80156  0.50000  1.0000
  O   O1452     1.0  0.05683  0.80156  0.50000  1.0000
  O   O1453     1.0  0.03177  0.83333  0.44317  1.0000
  O   O1454     1.0  0.03177  0.83333  0.55683  1.0000
  O   O1455     1.0  0.30158  0.83333  0.55683  1.0000
  O   O1456     1.0  0.30158  0.83333  0.44317  1.0000
  O   O1457     1.0  0.22349  0.66667  0.53177  1.0000
  O   O1458     1.0  0.10984  0.66667  0.53177  1.0000
  O   O1459     1.0  0.10984  0.66667  0.46823  1.0000
  O   O1460     1.0  0.22349  0.66667  0.46823  1.0000
  O   O1461     1.0  0.19844  0.72349  0.50000  1.0000
  O   O1462     1.0  0.19844  0.94319  0.50000  1.0000
  O   O1463     1.0  0.13490  0.94319  0.50000  1.0000
  O   O1464     1.0  0.13490  0.72349  0.50000  1.0000
  O   O1465     1.0  0.16667  0.69844  0.55683  1.0000
  O   O1466     1.0  0.16667  0.69844  0.44317  1.0000
  O   O1467     1.0  0.16667  0.96824  0.44317  1.0000
  O   O1468     1.0  0.16667  0.96824  0.55683  1.0000
  O   O1469     1.0  0.16667  0.72349  0.46823  1.0000
  O   O1470     1.0  0.16667  0.94319  0.46823  1.0000
  O   O1471     1.0  0.16667  0.94319  0.53177  1.0000
  O   O1472     1.0  0.16667  0.72349  0.53177  1.0000
  O   O1473     1.0  0.22349  0.69844  0.50000  1.0000
  O   O1474     1.0  0.10984  0.69844  0.50000  1.0000
  O   O1475     1.0  0.10984  0.96824  0.50000  1.0000
  O   O1476     1.0  0.22349  0.96824  0.50000  1.0000
  O   O1477     1.0  0.19844  0.66667  0.44317  1.0000
  O   O1478     1.0  0.19844  0.66667  0.55683  1.0000
  O   O1479     1.0  0.13490  0.66667  0.55683  1.0000
  O   O1480     1.0  0.13490  0.66667  0.44317  1.0000
  O   O1481     1.0  0.22349  0.83333  0.36510  1.0000
  O   O1482     1.0  0.10984  0.83333  0.36510  1.0000
  O   O1483     1.0  0.10984  0.83333  0.63491  1.0000
  O   O1484     1.0  0.22349  0.83333  0.63491  1.0000
  O   O1485     1.0  0.19844  0.89016  0.33333  1.0000
  O   O1486     1.0  0.19844  0.77651  0.33333  1.0000
  O   O1487     1.0  0.13490  0.77651  0.33333  1.0000
  O   O1488     1.0  0.13490  0.89016  0.33333  1.0000
  O   O1489     1.0  0.16667  0.86510  0.39016  1.0000
  O   O1490     1.0  0.16667  0.86510  0.60986  1.0000
  O   O1491     1.0  0.16667  0.80156  0.60986  1.0000
  O   O1492     1.0  0.16667  0.80156  0.39016  1.0000
  O   O1493     1.0  0.16667  0.89016  0.63491  1.0000
  O   O1494     1.0  0.16667  0.77651  0.63491  1.0000
  O   O1495     1.0  0.16667  0.77651  0.36510  1.0000
  O   O1496     1.0  0.16667  0.89016  0.36510  1.0000
  O   O1497     1.0  0.22349  0.86510  0.33333  1.0000
  O   O1498     1.0  0.10984  0.86510  0.33333  1.0000
  O   O1499     1.0  0.10984  0.80156  0.33333  1.0000
  O   O1500     1.0  0.22349  0.80156  0.33333  1.0000
  O   O1501     1.0  0.19844  0.83333  0.60986  1.0000
  O   O1502     1.0  0.19844  0.83333  0.39016  1.0000
  O   O1503     1.0  0.13490  0.83333  0.39016  1.0000
  O   O1504     1.0  0.13490  0.83333  0.60986  1.0000
  O   O1505     1.0  0.01870  0.98130  0.64797  1.0000
  O   O1506     1.0  0.31464  0.68536  0.64797  1.0000
  O   O1507     1.0  0.31464  0.98130  0.35203  1.0000
  O   O1508     1.0  0.01870  0.68536  0.35203  1.0000
  O   O1509     1.0  0.31464  0.68536  0.35203  1.0000
  O   O1510     1.0  0.01870  0.98130  0.35203  1.0000
  O   O1511     1.0  0.31464  0.98130  0.64797  1.0000
  O   O1512     1.0  0.01870  0.68536  0.64797  1.0000
  O   O1513     1.0  0.01870  0.81464  0.48130  1.0000
  O   O1514     1.0  0.31464  0.85203  0.48130  1.0000
  O   O1515     1.0  0.31464  0.81464  0.51870  1.0000
  O   O1516     1.0  0.01870  0.85203  0.51870  1.0000
  O   O1517     1.0  0.31464  0.85203  0.51870  1.0000
  O   O1518     1.0  0.01870  0.81464  0.51870  1.0000
  O   O1519     1.0  0.31464  0.81464  0.48130  1.0000
  O   O1520     1.0  0.01870  0.85203  0.48130  1.0000
  O   O1521     1.0  0.18536  0.98130  0.48130  1.0000
  O   O1522     1.0  0.14797  0.68536  0.48130  1.0000
  O   O1523     1.0  0.14797  0.98130  0.51870  1.0000
  O   O1524     1.0  0.18536  0.68536  0.51870  1.0000
  O   O1525     1.0  0.14797  0.68536  0.51870  1.0000
  O   O1526     1.0  0.18536  0.98130  0.51870  1.0000
  O   O1527     1.0  0.14797  0.98130  0.48130  1.0000
  O   O1528     1.0  0.18536  0.68536  0.48130  1.0000
  O   O1529     1.0  0.18536  0.81464  0.64797  1.0000
  O   O1530     1.0  0.14797  0.85203  0.64797  1.0000
  O   O1531     1.0  0.14797  0.81464  0.35203  1.0000
  O   O1532     1.0  0.18536  0.85203  0.35203  1.0000
  O   O1533     1.0  0.14797  0.85203  0.35203  1.0000
  O   O1534     1.0  0.18536  0.81464  0.35203  1.0000
  O   O1535     1.0  0.14797  0.81464  0.64797  1.0000
  O   O1536     1.0  0.18536  0.85203  0.64797  1.0000
  C   C1759     1.0  0.05121  0.66667  0.61548  1.0000
  C   C1760     1.0  0.28214  0.66667  0.61548  1.0000
  C   C1761     1.0  0.28214  0.66667  0.38454  1.0000
  C   C1762     1.0  0.05121  0.66667  0.38454  1.0000
  C   C1763     1.0  0.28214  0.71787  0.33333  1.0000
  C   C1764     1.0  0.28214  0.94881  0.33333  1.0000
  C   C1765     1.0  0.05121  0.94881  0.33333  1.0000
  C   C1766     1.0  0.05121  0.71787  0.33333  1.0000
  C   C1767     1.0  0.00000  0.94881  0.38454  1.0000
  C   C1768     1.0  0.00000  0.94881  0.61548  1.0000
  C   C1769     1.0  0.00000  0.71787  0.61548  1.0000
  C   C1770     1.0  0.00000  0.71787  0.38454  1.0000
  C   C1771     1.0  0.05121  0.83333  0.44881  1.0000
  C   C1772     1.0  0.28214  0.83333  0.44881  1.0000
  C   C1773     1.0  0.28214  0.83333  0.55121  1.0000
  C   C1774     1.0  0.05121  0.83333  0.55121  1.0000
  C   C1775     1.0  0.28214  0.88454  0.50000  1.0000
  C   C1776     1.0  0.28214  0.78214  0.50000  1.0000
  C   C1777     1.0  0.05121  0.78214  0.50000  1.0000
  C   C1778     1.0  0.05121  0.88454  0.50000  1.0000
  C   C1779     1.0  0.00000  0.78214  0.55121  1.0000
  C   C1780     1.0  0.00000  0.78214  0.44881  1.0000
  C   C1781     1.0  0.00000  0.88454  0.44881  1.0000
  C   C1782     1.0  0.00000  0.88454  0.55121  1.0000
  C   C1783     1.0  0.21787  0.66667  0.44881  1.0000
  C   C1784     1.0  0.11548  0.66667  0.44881  1.0000
  C   C1785     1.0  0.11548  0.66667  0.55121  1.0000
  C   C1786     1.0  0.21787  0.66667  0.55121  1.0000
  C   C1787     1.0  0.11548  0.71787  0.50000  1.0000
  C   C1788     1.0  0.11548  0.94881  0.50000  1.0000
  C   C1789     1.0  0.21787  0.94881  0.50000  1.0000
  C   C1790     1.0  0.21787  0.71787  0.50000  1.0000
  C   C1791     1.0  0.16667  0.94881  0.55121  1.0000
  C   C1792     1.0  0.16667  0.94881  0.44881  1.0000
  C   C1793     1.0  0.16667  0.71787  0.44881  1.0000
  C   C1794     1.0  0.16667  0.71787  0.55121  1.0000
  C   C1795     1.0  0.21787  0.83333  0.61548  1.0000
  C   C1796     1.0  0.11548  0.83333  0.61548  1.0000
  C   C1797     1.0  0.11548  0.83333  0.38454  1.0000
  C   C1798     1.0  0.21787  0.83333  0.38454  1.0000
  C   C1799     1.0  0.11548  0.88454  0.33333  1.0000
  C   C1800     1.0  0.11548  0.78214  0.33333  1.0000
  C   C1801     1.0  0.21787  0.78214  0.33333  1.0000
  C   C1802     1.0  0.21787  0.88454  0.33333  1.0000
  C   C1803     1.0  0.16667  0.78214  0.38454  1.0000
  C   C1804     1.0  0.16667  0.78214  0.61548  1.0000
  C   C1805     1.0  0.16667  0.88454  0.61548  1.0000
  C   C1806     1.0  0.16667  0.88454  0.38454  1.0000
  C   C1807     1.0  0.06834  0.66667  0.40167  1.0000
  C   C1808     1.0  0.26501  0.66667  0.59834  1.0000
  C   C1809     1.0  0.06834  0.66667  0.59834  1.0000
  C   C1810     1.0  0.06834  0.73501  0.33333  1.0000
  C   C1811     1.0  0.06834  0.93167  0.33333  1.0000
  C   C1812     1.0  0.26501  0.93167  0.33333  1.0000
  C   C1813     1.0  0.26501  0.73501  0.33333  1.0000
  C   C1814     1.0  0.00000  0.73501  0.40167  1.0000
  C   C1815     1.0  0.00000  0.73501  0.59834  1.0000
  C   C1816     1.0  0.00000  0.93167  0.59834  1.0000
  C   C1817     1.0  0.00000  0.93167  0.40167  1.0000
  C   C1818     1.0  0.06834  0.83333  0.56834  1.0000
  C   C1819     1.0  0.26501  0.83333  0.56834  1.0000
  C   C1820     1.0  0.26501  0.83333  0.43167  1.0000
  C   C1821     1.0  0.06834  0.90167  0.50000  1.0000
  C   C1822     1.0  0.06834  0.76501  0.50000  1.0000
  C   C1823     1.0  0.26501  0.76501  0.50000  1.0000
  C   C1824     1.0  0.26501  0.90167  0.50000  1.0000
  C   C1825     1.0  0.00000  0.90167  0.56834  1.0000
  C   C1826     1.0  0.00000  0.90167  0.43167  1.0000
  C   C1827     1.0  0.00000  0.76501  0.43167  1.0000
  C   C1828     1.0  0.00000  0.76501  0.56834  1.0000
  C   C1829     1.0  0.23501  0.66667  0.56834  1.0000
  C   C1830     1.0  0.09834  0.66667  0.56834  1.0000
  C   C1831     1.0  0.09834  0.66667  0.43167  1.0000
  C   C1832     1.0  0.23501  0.73501  0.50000  1.0000
  C   C1833     1.0  0.23501  0.93167  0.50000  1.0000
  C   C1834     1.0  0.09834  0.93167  0.50000  1.0000
  C   C1835     1.0  0.09834  0.73501  0.50000  1.0000
  C   C1836     1.0  0.16667  0.73501  0.56834  1.0000
  C   C1837     1.0  0.16667  0.93167  0.43167  1.0000
  C   C1838     1.0  0.16667  0.93167  0.56834  1.0000
  C   C1839     1.0  0.23501  0.83333  0.40167  1.0000
  C   C1840     1.0  0.09834  0.83333  0.59834  1.0000
  C   C1841     1.0  0.23501  0.83333  0.59834  1.0000
  C   C1842     1.0  0.23501  0.90167  0.33333  1.0000
  C   C1843     1.0  0.23501  0.76501  0.33333  1.0000
  C   C1844     1.0  0.09834  0.76501  0.33333  1.0000
  C   C1845     1.0  0.09834  0.90167  0.33333  1.0000
  C   C1846     1.0  0.16667  0.90167  0.40167  1.0000
  C   C1847     1.0  0.16667  0.90167  0.59834  1.0000
  C   C1848     1.0  0.16667  0.76501  0.59834  1.0000
  C   C1849     1.0  0.08916  0.66667  0.39480  1.0000
  C   C1850     1.0  0.24417  0.66667  0.60520  1.0000
  C   C1851     1.0  0.08916  0.66667  0.60520  1.0000
  C   C1852     1.0  0.06147  0.75583  0.33333  1.0000
  C   C1853     1.0  0.06147  0.91084  0.33333  1.0000
  C   C1854     1.0  0.27187  0.91084  0.33333  1.0000
  C   C1855     1.0  0.27187  0.75583  0.33333  1.0000
  C   C1856     1.0  0.00000  0.72813  0.42250  1.0000
  C   C1857     1.0  0.00000  0.72813  0.57750  1.0000
  C   C1858     1.0  0.00000  0.93853  0.57750  1.0000
  C   C1859     1.0  0.00000  0.93853  0.42250  1.0000
  C   C1860     1.0  0.00000  0.75583  0.60520  1.0000
  C   C1861     1.0  0.00000  0.91084  0.60520  1.0000
  C   C1862     1.0  0.00000  0.91084  0.39480  1.0000
  C   C1863     1.0  0.00000  0.75583  0.39480  1.0000
  C   C1864     1.0  0.08916  0.72813  0.33333  1.0000
  C   C1865     1.0  0.24417  0.72813  0.33333  1.0000
  C   C1866     1.0  0.24417  0.93853  0.33333  1.0000
  C   C1867     1.0  0.08916  0.93853  0.33333  1.0000
  C   C1868     1.0  0.06147  0.66667  0.57750  1.0000
  C   C1869     1.0  0.06147  0.66667  0.42250  1.0000
  C   C1870     1.0  0.27187  0.66667  0.57750  1.0000
  C   C1871     1.0  0.08916  0.83333  0.56147  1.0000
  C   C1872     1.0  0.24417  0.83333  0.56147  1.0000
  C   C1873     1.0  0.24417  0.83333  0.43853  1.0000
  C   C1874     1.0  0.06147  0.92251  0.50000  1.0000
  C   C1875     1.0  0.06147  0.74417  0.50000  1.0000
  C   C1876     1.0  0.27187  0.74417  0.50000  1.0000
  C   C1877     1.0  0.27187  0.92251  0.50000  1.0000
  C   C1878     1.0  0.00000  0.89480  0.58918  1.0000
  C   C1879     1.0  0.00000  0.89480  0.41084  1.0000
  C   C1880     1.0  0.00000  0.77187  0.41084  1.0000
  C   C1881     1.0  0.00000  0.77187  0.58918  1.0000
  C   C1882     1.0  0.00000  0.92251  0.43853  1.0000
  C   C1883     1.0  0.00000  0.74417  0.43853  1.0000
  C   C1884     1.0  0.00000  0.74417  0.56147  1.0000
  C   C1885     1.0  0.00000  0.92251  0.56147  1.0000
  C   C1886     1.0  0.08916  0.89480  0.50000  1.0000
  C   C1887     1.0  0.24417  0.89480  0.50000  1.0000
  C   C1888     1.0  0.24417  0.77187  0.50000  1.0000
  C   C1889     1.0  0.08916  0.77187  0.50000  1.0000
  C   C1890     1.0  0.06147  0.83333  0.58918  1.0000
  C   C1891     1.0  0.27187  0.83333  0.58918  1.0000
  C   C1892     1.0  0.27187  0.83333  0.41084  1.0000
  C   C1893     1.0  0.25585  0.66667  0.56147  1.0000
  C   C1894     1.0  0.07750  0.66667  0.56147  1.0000
  C   C1895     1.0  0.07750  0.66667  0.43853  1.0000
  C   C1896     1.0  0.22813  0.75583  0.50000  1.0000
  C   C1897     1.0  0.22813  0.91084  0.50000  1.0000
  C   C1898     1.0  0.10520  0.91084  0.50000  1.0000
  C   C1899     1.0  0.10520  0.75583  0.50000  1.0000
  C   C1900     1.0  0.16667  0.72813  0.58918  1.0000
  C   C1901     1.0  0.16667  0.93853  0.41084  1.0000
  C   C1902     1.0  0.16667  0.93853  0.58918  1.0000
  C   C1903     1.0  0.16667  0.91084  0.43853  1.0000
  C   C1904     1.0  0.16667  0.91084  0.56147  1.0000
  C   C1905     1.0  0.16667  0.75583  0.56147  1.0000
  C   C1906     1.0  0.25585  0.72813  0.50000  1.0000
  C   C1907     1.0  0.07750  0.72813  0.50000  1.0000
  C   C1908     1.0  0.07750  0.93853  0.50000  1.0000
  C   C1909     1.0  0.25585  0.93853  0.50000  1.0000
  C   C1910     1.0  0.22813  0.66667  0.58918  1.0000
  C   C1911     1.0  0.10520  0.66667  0.58918  1.0000
  C   C1912     1.0  0.10520  0.66667  0.41084  1.0000
  C   C1913     1.0  0.25585  0.83333  0.39480  1.0000
  C   C1914     1.0  0.07750  0.83333  0.60520  1.0000
  C   C1915     1.0  0.25585  0.83333  0.60520  1.0000
  C   C1916     1.0  0.22813  0.92251  0.33333  1.0000
  C   C1917     1.0  0.22813  0.74417  0.33333  1.0000
  C   C1918     1.0  0.10520  0.74417  0.33333  1.0000
  C   C1919     1.0  0.10520  0.92251  0.33333  1.0000
  C   C1920     1.0  0.16667  0.89480  0.42250  1.0000
  C   C1921     1.0  0.16667  0.89480  0.57750  1.0000
  C   C1922     1.0  0.16667  0.77187  0.57750  1.0000
  C   C1923     1.0  0.16667  0.92251  0.60520  1.0000
  C   C1924     1.0  0.16667  0.74417  0.60520  1.0000
  C   C1925     1.0  0.16667  0.92251  0.39480  1.0000
  C   C1926     1.0  0.25585  0.89480  0.33333  1.0000
  C   C1927     1.0  0.07750  0.89480  0.33333  1.0000
  C   C1928     1.0  0.07750  0.77187  0.33333  1.0000
  C   C1929     1.0  0.25585  0.77187  0.33333  1.0000
  C   C1930     1.0  0.22813  0.83333  0.57750  1.0000
  C   C1931     1.0  0.22813  0.83333  0.42250  1.0000
  C   C1932     1.0  0.10520  0.83333  0.57750  1.0000
  H   H821      1.0  0.09301  0.66667  0.37863  1.0000
  H   H822      1.0  0.24032  0.66667  0.62137  1.0000
  H   H823      1.0  0.09301  0.66667  0.62137  1.0000
  H   H824      1.0  0.04530  0.75968  0.33333  1.0000
  H   H825      1.0  0.04530  0.90699  0.33333  1.0000
  H   H826      1.0  0.28804  0.90699  0.33333  1.0000
  H   H827      1.0  0.28804  0.75968  0.33333  1.0000
  H   H828      1.0  0.00000  0.71196  0.42634  1.0000
  H   H829      1.0  0.00000  0.71196  0.57366  1.0000
  H   H830      1.0  0.00000  0.95470  0.57366  1.0000
  H   H831      1.0  0.00000  0.95470  0.42634  1.0000
  H   H832      1.0  0.00000  0.75968  0.62137  1.0000
  H   H833      1.0  0.00000  0.90699  0.62137  1.0000
  H   H834      1.0  0.00000  0.90699  0.37863  1.0000
  H   H835      1.0  0.00000  0.75968  0.37863  1.0000
  H   H836      1.0  0.09301  0.71196  0.33333  1.0000
  H   H837      1.0  0.24032  0.71196  0.33333  1.0000
  H   H838      1.0  0.24032  0.95470  0.33333  1.0000
  H   H839      1.0  0.09301  0.95470  0.33333  1.0000
  H   H840      1.0  0.04530  0.66667  0.57366  1.0000
  H   H841      1.0  0.04530  0.66667  0.42634  1.0000
  H   H842      1.0  0.28804  0.66667  0.57366  1.0000
  H   H843      1.0  0.09301  0.83333  0.54530  1.0000
  H   H844      1.0  0.24032  0.83333  0.54530  1.0000
  H   H845      1.0  0.24032  0.83333  0.45470  1.0000
  H   H846      1.0  0.04530  0.92634  0.50000  1.0000
  H   H847      1.0  0.04530  0.74032  0.50000  1.0000
  H   H848      1.0  0.28804  0.74032  0.50000  1.0000
  H   H849      1.0  0.28804  0.92634  0.50000  1.0000
  H   H850      1.0  0.00000  0.87863  0.59301  1.0000
  H   H851      1.0  0.00000  0.87863  0.40699  1.0000
  H   H852      1.0  0.00000  0.78804  0.40699  1.0000
  H   H853      1.0  0.00000  0.78804  0.59301  1.0000
  H   H854      1.0  0.00000  0.92634  0.45470  1.0000
  H   H855      1.0  0.00000  0.74032  0.45470  1.0000
  H   H856      1.0  0.00000  0.74032  0.54530  1.0000
  H   H857      1.0  0.00000  0.92634  0.54530  1.0000
  H   H858      1.0  0.09301  0.87863  0.50000  1.0000
  H   H859      1.0  0.24032  0.87863  0.50000  1.0000
  H   H860      1.0  0.24032  0.78804  0.50000  1.0000
  H   H861      1.0  0.09301  0.78804  0.50000  1.0000
  H   H862      1.0  0.04530  0.83333  0.59301  1.0000
  H   H863      1.0  0.28804  0.83333  0.59301  1.0000
  H   H864      1.0  0.28804  0.83333  0.40699  1.0000
  H   H865      1.0  0.25968  0.66667  0.54530  1.0000
  H   H866      1.0  0.07366  0.66667  0.54530  1.0000
  H   H867      1.0  0.07366  0.66667  0.45470  1.0000
  H   H868      1.0  0.21196  0.75968  0.50000  1.0000
  H   H869      1.0  0.21196  0.90699  0.50000  1.0000
  H   H870      1.0  0.12137  0.90699  0.50000  1.0000
  H   H871      1.0  0.12137  0.75968  0.50000  1.0000
  H   H872      1.0  0.16667  0.71196  0.59301  1.0000
  H   H873      1.0  0.16667  0.95470  0.40699  1.0000
  H   H874      1.0  0.16667  0.95470  0.59301  1.0000
  H   H875      1.0  0.16667  0.90699  0.45470  1.0000
  H   H876      1.0  0.16667  0.90699  0.54530  1.0000
  H   H877      1.0  0.16667  0.75968  0.54530  1.0000
  H   H878      1.0  0.25968  0.71196  0.50000  1.0000
  H   H879      1.0  0.07366  0.71196  0.50000  1.0000
  H   H880      1.0  0.07366  0.95470  0.50000  1.0000
  H   H881      1.0  0.25968  0.95470  0.50000  1.0000
  H   H882      1.0  0.21196  0.66667  0.59301  1.0000
  H   H883      1.0  0.12137  0.66667  0.59301  1.0000
  H   H884      1.0  0.12137  0.66667  0.40699  1.0000
  H   H885      1.0  0.25968  0.83333  0.37863  1.0000
  H   H886      1.0  0.07366  0.83333  0.62137  1.0000
  H   H887      1.0  0.25968  0.83333  0.62137  1.0000
  H   H888      1.0  0.21196  0.92634  0.33333  1.0000
  H   H889      1.0  0.21196  0.74032  0.33333  1.0000
  H   H890      1.0  0.12137  0.74032  0.33333  1.0000
  H   H891      1.0  0.12137  0.92634  0.33333  1.0000
  H   H892      1.0  0.16667  0.87863  0.42634  1.0000
  H   H893      1.0  0.16667  0.87863  0.57366  1.0000
  H   H894      1.0  0.16667  0.78804  0.57366  1.0000
  H   H895      1.0  0.16667  0.92634  0.62137  1.0000
  H   H896      1.0  0.16667  0.74032  0.62137  1.0000
  H   H897      1.0  0.16667  0.92634  0.37863  1.0000
  H   H898      1.0  0.25968  0.87863  0.33333  1.0000
  H   H899      1.0  0.07366  0.87863  0.33333  1.0000
  H   H900      1.0  0.07366  0.78804  0.33333  1.0000
  H   H901      1.0  0.25968  0.78804  0.33333  1.0000
  H   H902      1.0  0.21196  0.83333  0.57366  1.0000
  H   H903      1.0  0.21196  0.83333  0.42634  1.0000
  H   H904      1.0  0.12137  0.83333  0.57366  1.0000
  Zr  Zr289     1.0  0.37330  0.00000  0.33333  1.0000
  Zr  Zr290     1.0  0.62671  0.00000  0.33333  1.0000
  Zr  Zr291     1.0  0.33333  0.03997  0.33333  1.0000
  Zr  Zr292     1.0  0.33333  0.29338  0.33333  1.0000
  Zr  Zr293     1.0  0.33333  0.00000  0.37330  1.0000
  Zr  Zr294     1.0  0.33333  0.00000  0.62671  1.0000
  Zr  Zr295     1.0  0.37330  0.16667  0.50000  1.0000
  Zr  Zr296     1.0  0.62671  0.16667  0.50000  1.0000
  Zr  Zr297     1.0  0.33333  0.20663  0.50000  1.0000
  Zr  Zr298     1.0  0.33333  0.12670  0.50000  1.0000
  Zr  Zr299     1.0  0.33333  0.16667  0.53997  1.0000
  Zr  Zr300     1.0  0.33333  0.16667  0.46003  1.0000
  Zr  Zr301     1.0  0.53997  0.00000  0.50000  1.0000
  Zr  Zr302     1.0  0.46003  0.00000  0.50000  1.0000
  Zr  Zr303     1.0  0.50000  0.03997  0.50000  1.0000
  Zr  Zr304     1.0  0.50000  0.29338  0.50000  1.0000
  Zr  Zr305     1.0  0.50000  0.00000  0.53997  1.0000
  Zr  Zr306     1.0  0.50000  0.00000  0.46003  1.0000
  Zr  Zr307     1.0  0.53997  0.16667  0.33333  1.0000
  Zr  Zr308     1.0  0.46003  0.16667  0.33333  1.0000
  Zr  Zr309     1.0  0.50000  0.20663  0.33333  1.0000
  Zr  Zr310     1.0  0.50000  0.12670  0.33333  1.0000
  Zr  Zr311     1.0  0.50000  0.16667  0.37330  1.0000
  Zr  Zr312     1.0  0.50000  0.16667  0.62671  1.0000
  O   O1537     1.0  0.39016  0.00000  0.36510  1.0000
  O   O1538     1.0  0.60986  0.00000  0.36510  1.0000
  O   O1539     1.0  0.60986  0.00000  0.63491  1.0000
  O   O1540     1.0  0.39016  0.00000  0.63491  1.0000
  O   O1541     1.0  0.36510  0.05683  0.33333  1.0000
  O   O1542     1.0  0.36510  0.27652  0.33333  1.0000
  O   O1543     1.0  0.63491  0.27652  0.33333  1.0000
  O   O1544     1.0  0.63491  0.05683  0.33333  1.0000
  O   O1545     1.0  0.33333  0.03177  0.39016  1.0000
  O   O1546     1.0  0.33333  0.03177  0.60986  1.0000
  O   O1547     1.0  0.33333  0.30158  0.60986  1.0000
  O   O1548     1.0  0.33333  0.30158  0.39016  1.0000
  O   O1549     1.0  0.33333  0.05683  0.63491  1.0000
  O   O1550     1.0  0.33333  0.27652  0.63491  1.0000
  O   O1551     1.0  0.33333  0.27652  0.36510  1.0000
  O   O1552     1.0  0.33333  0.05683  0.36510  1.0000
  O   O1553     1.0  0.39016  0.03177  0.33333  1.0000
  O   O1554     1.0  0.60986  0.03177  0.33333  1.0000
  O   O1555     1.0  0.60986  0.30158  0.33333  1.0000
  O   O1556     1.0  0.39016  0.30158  0.33333  1.0000
  O   O1557     1.0  0.36510  0.00000  0.60986  1.0000
  O   O1558     1.0  0.36510  0.00000  0.39016  1.0000
  O   O1559     1.0  0.63491  0.00000  0.39016  1.0000
  O   O1560     1.0  0.63491  0.00000  0.60986  1.0000
  O   O1561     1.0  0.39016  0.16667  0.53177  1.0000
  O   O1562     1.0  0.60986  0.16667  0.53177  1.0000
  O   O1563     1.0  0.60986  0.16667  0.46823  1.0000
  O   O1564     1.0  0.39016  0.16667  0.46823  1.0000
  O   O1565     1.0  0.36510  0.22349  0.50000  1.0000
  O   O1566     1.0  0.36510  0.10984  0.50000  1.0000
  O   O1567     1.0  0.63491  0.10984  0.50000  1.0000
  O   O1568     1.0  0.63491  0.22349  0.50000  1.0000
  O   O1569     1.0  0.33333  0.19844  0.55683  1.0000
  O   O1570     1.0  0.33333  0.19844  0.44317  1.0000
  O   O1571     1.0  0.33333  0.13490  0.44317  1.0000
  O   O1572     1.0  0.33333  0.13490  0.55683  1.0000
  O   O1573     1.0  0.33333  0.22349  0.46823  1.0000
  O   O1574     1.0  0.33333  0.10984  0.46823  1.0000
  O   O1575     1.0  0.33333  0.10984  0.53177  1.0000
  O   O1576     1.0  0.33333  0.22349  0.53177  1.0000
  O   O1577     1.0  0.39016  0.19844  0.50000  1.0000
  O   O1578     1.0  0.60986  0.19844  0.50000  1.0000
  O   O1579     1.0  0.60986  0.13490  0.50000  1.0000
  O   O1580     1.0  0.39016  0.13490  0.50000  1.0000
  O   O1581     1.0  0.36510  0.16667  0.44317  1.0000
  O   O1582     1.0  0.36510  0.16667  0.55683  1.0000
  O   O1583     1.0  0.63491  0.16667  0.55683  1.0000
  O   O1584     1.0  0.63491  0.16667  0.44317  1.0000
  O   O1585     1.0  0.55683  0.00000  0.53177  1.0000
  O   O1586     1.0  0.44317  0.00000  0.53177  1.0000
  O   O1587     1.0  0.44317  0.00000  0.46823  1.0000
  O   O1588     1.0  0.55683  0.00000  0.46823  1.0000
  O   O1589     1.0  0.53177  0.05683  0.50000  1.0000
  O   O1590     1.0  0.53177  0.27652  0.50000  1.0000
  O   O1591     1.0  0.46823  0.27652  0.50000  1.0000
  O   O1592     1.0  0.46823  0.05683  0.50000  1.0000
  O   O1593     1.0  0.50000  0.03177  0.55683  1.0000
  O   O1594     1.0  0.50000  0.03177  0.44317  1.0000
  O   O1595     1.0  0.50000  0.30158  0.44317  1.0000
  O   O1596     1.0  0.50000  0.30158  0.55683  1.0000
  O   O1597     1.0  0.50000  0.05683  0.46823  1.0000
  O   O1598     1.0  0.50000  0.27652  0.46823  1.0000
  O   O1599     1.0  0.50000  0.27652  0.53177  1.0000
  O   O1600     1.0  0.50000  0.05683  0.53177  1.0000
  O   O1601     1.0  0.55683  0.03177  0.50000  1.0000
  O   O1602     1.0  0.44317  0.03177  0.50000  1.0000
  O   O1603     1.0  0.44317  0.30158  0.50000  1.0000
  O   O1604     1.0  0.55683  0.30158  0.50000  1.0000
  O   O1605     1.0  0.53177  0.00000  0.44317  1.0000
  O   O1606     1.0  0.53177  0.00000  0.55683  1.0000
  O   O1607     1.0  0.46823  0.00000  0.55683  1.0000
  O   O1608     1.0  0.46823  0.00000  0.44317  1.0000
  O   O1609     1.0  0.55683  0.16667  0.36510  1.0000
  O   O1610     1.0  0.44317  0.16667  0.36510  1.0000
  O   O1611     1.0  0.44317  0.16667  0.63491  1.0000
  O   O1612     1.0  0.55683  0.16667  0.63491  1.0000
  O   O1613     1.0  0.53177  0.22349  0.33333  1.0000
  O   O1614     1.0  0.53177  0.10984  0.33333  1.0000
  O   O1615     1.0  0.46823  0.10984  0.33333  1.0000
  O   O1616     1.0  0.46823  0.22349  0.33333  1.0000
  O   O1617     1.0  0.50000  0.19844  0.39016  1.0000
  O   O1618     1.0  0.50000  0.19844  0.60986  1.0000
  O   O1619     1.0  0.50000  0.13490  0.60986  1.0000
  O   O1620     1.0  0.50000  0.13490  0.39016  1.0000
  O   O1621     1.0  0.50000  0.22349  0.63491  1.0000
  O   O1622     1.0  0.50000  0.10984  0.63491  1.0000
  O   O1623     1.0  0.50000  0.10984  0.36510  1.0000
  O   O1624     1.0  0.50000  0.22349  0.36510  1.0000
  O   O1625     1.0  0.55683  0.19844  0.33333  1.0000
  O   O1626     1.0  0.44317  0.19844  0.33333  1.0000
  O   O1627     1.0  0.44317  0.13490  0.33333  1.0000
  O   O1628     1.0  0.55683  0.13490  0.33333  1.0000
  O   O1629     1.0  0.53177  0.16667  0.60986  1.0000
  O   O1630     1.0  0.53177  0.16667  0.39016  1.0000
  O   O1631     1.0  0.46823  0.16667  0.39016  1.0000
  O   O1632     1.0  0.46823  0.16667  0.60986  1.0000
  O   O1633     1.0  0.35203  0.31464  0.64797  1.0000
  O   O1634     1.0  0.64797  0.01870  0.64797  1.0000
  O   O1635     1.0  0.64797  0.31464  0.35203  1.0000
  O   O1636     1.0  0.35203  0.01870  0.35203  1.0000
  O   O1637     1.0  0.64797  0.01870  0.35203  1.0000
  O   O1638     1.0  0.35203  0.31464  0.35203  1.0000
  O   O1639     1.0  0.64797  0.31464  0.64797  1.0000
  O   O1640     1.0  0.35203  0.01870  0.64797  1.0000
  O   O1641     1.0  0.35203  0.14797  0.48130  1.0000
  O   O1642     1.0  0.64797  0.18536  0.48130  1.0000
  O   O1643     1.0  0.64797  0.14797  0.51870  1.0000
  O   O1644     1.0  0.35203  0.18536  0.51870  1.0000
  O   O1645     1.0  0.64797  0.18536  0.51870  1.0000
  O   O1646     1.0  0.35203  0.14797  0.51870  1.0000
  O   O1647     1.0  0.64797  0.14797  0.48130  1.0000
  O   O1648     1.0  0.35203  0.18536  0.48130  1.0000
  O   O1649     1.0  0.51870  0.31464  0.48130  1.0000
  O   O1650     1.0  0.48130  0.01870  0.48130  1.0000
  O   O1651     1.0  0.48130  0.31464  0.51870  1.0000
  O   O1652     1.0  0.51870  0.01870  0.51870  1.0000
  O   O1653     1.0  0.48130  0.01870  0.51870  1.0000
  O   O1654     1.0  0.51870  0.31464  0.51870  1.0000
  O   O1655     1.0  0.48130  0.31464  0.48130  1.0000
  O   O1656     1.0  0.51870  0.01870  0.48130  1.0000
  O   O1657     1.0  0.51870  0.14797  0.64797  1.0000
  O   O1658     1.0  0.48130  0.18536  0.64797  1.0000
  O   O1659     1.0  0.48130  0.14797  0.35203  1.0000
  O   O1660     1.0  0.51870  0.18536  0.35203  1.0000
  O   O1661     1.0  0.48130  0.18536  0.35203  1.0000
  O   O1662     1.0  0.51870  0.14797  0.35203  1.0000
  O   O1663     1.0  0.48130  0.14797  0.64797  1.0000
  O   O1664     1.0  0.51870  0.18536  0.64797  1.0000
  C   C1933     1.0  0.38454  0.00000  0.61548  1.0000
  C   C1934     1.0  0.61548  0.00000  0.61548  1.0000
  C   C1935     1.0  0.61548  0.00000  0.38454  1.0000
  C   C1936     1.0  0.38454  0.00000  0.38454  1.0000
  C   C1937     1.0  0.61548  0.05121  0.33333  1.0000
  C   C1938     1.0  0.61548  0.28214  0.33333  1.0000
  C   C1939     1.0  0.38454  0.28214  0.33333  1.0000
  C   C1940     1.0  0.38454  0.05121  0.33333  1.0000
  C   C1941     1.0  0.33333  0.28214  0.38454  1.0000
  C   C1942     1.0  0.33333  0.28214  0.61548  1.0000
  C   C1943     1.0  0.33333  0.05121  0.61548  1.0000
  C   C1944     1.0  0.33333  0.05121  0.38454  1.0000
  C   C1945     1.0  0.38454  0.16667  0.44881  1.0000
  C   C1946     1.0  0.61548  0.16667  0.44881  1.0000
  C   C1947     1.0  0.61548  0.16667  0.55121  1.0000
  C   C1948     1.0  0.38454  0.16667  0.55121  1.0000
  C   C1949     1.0  0.61548  0.21787  0.50000  1.0000
  C   C1950     1.0  0.61548  0.11548  0.50000  1.0000
  C   C1951     1.0  0.38454  0.11548  0.50000  1.0000
  C   C1952     1.0  0.38454  0.21787  0.50000  1.0000
  C   C1953     1.0  0.33333  0.11548  0.55121  1.0000
  C   C1954     1.0  0.33333  0.11548  0.44881  1.0000
  C   C1955     1.0  0.33333  0.21787  0.44881  1.0000
  C   C1956     1.0  0.33333  0.21787  0.55121  1.0000
  C   C1957     1.0  0.55121  0.00000  0.44881  1.0000
  C   C1958     1.0  0.44881  0.00000  0.44881  1.0000
  C   C1959     1.0  0.44881  0.00000  0.55121  1.0000
  C   C1960     1.0  0.55121  0.00000  0.55121  1.0000
  C   C1961     1.0  0.44881  0.05121  0.50000  1.0000
  C   C1962     1.0  0.44881  0.28214  0.50000  1.0000
  C   C1963     1.0  0.55121  0.28214  0.50000  1.0000
  C   C1964     1.0  0.55121  0.05121  0.50000  1.0000
  C   C1965     1.0  0.50000  0.28214  0.55121  1.0000
  C   C1966     1.0  0.50000  0.28214  0.44881  1.0000
  C   C1967     1.0  0.50000  0.05121  0.44881  1.0000
  C   C1968     1.0  0.50000  0.05121  0.55121  1.0000
  C   C1969     1.0  0.55121  0.16667  0.61548  1.0000
  C   C1970     1.0  0.44881  0.16667  0.61548  1.0000
  C   C1971     1.0  0.44881  0.16667  0.38454  1.0000
  C   C1972     1.0  0.55121  0.16667  0.38454  1.0000
  C   C1973     1.0  0.44881  0.21787  0.33333  1.0000
  C   C1974     1.0  0.44881  0.11548  0.33333  1.0000
  C   C1975     1.0  0.55121  0.11548  0.33333  1.0000
  C   C1976     1.0  0.55121  0.21787  0.33333  1.0000
  C   C1977     1.0  0.50000  0.11548  0.38454  1.0000
  C   C1978     1.0  0.50000  0.11548  0.61548  1.0000
  C   C1979     1.0  0.50000  0.21787  0.61548  1.0000
  C   C1980     1.0  0.50000  0.21787  0.38454  1.0000
  C   C1981     1.0  0.40167  0.00000  0.40167  1.0000
  C   C1982     1.0  0.59834  0.00000  0.40167  1.0000
  C   C1983     1.0  0.59834  0.00000  0.59834  1.0000
  C   C1984     1.0  0.40167  0.00000  0.59834  1.0000
  C   C1985     1.0  0.59834  0.26501  0.33333  1.0000
  C   C1986     1.0  0.59834  0.06834  0.33333  1.0000
  C   C1987     1.0  0.33333  0.06834  0.40167  1.0000
  C   C1988     1.0  0.33333  0.06834  0.59834  1.0000
  C   C1989     1.0  0.33333  0.26501  0.59834  1.0000
  C   C1990     1.0  0.40167  0.16667  0.56834  1.0000
  C   C1991     1.0  0.59834  0.16667  0.56834  1.0000
  C   C1992     1.0  0.40167  0.16667  0.43167  1.0000
  C   C1993     1.0  0.40167  0.09834  0.50000  1.0000
  C   C1994     1.0  0.59834  0.09834  0.50000  1.0000
  C   C1995     1.0  0.59834  0.23501  0.50000  1.0000
  C   C1996     1.0  0.33333  0.23501  0.56834  1.0000
  C   C1997     1.0  0.33333  0.09834  0.43167  1.0000
  C   C1998     1.0  0.33333  0.09834  0.56834  1.0000
  C   C1999     1.0  0.56834  0.00000  0.56834  1.0000
  C   C2000     1.0  0.43167  0.00000  0.56834  1.0000
  C   C2001     1.0  0.43167  0.00000  0.43167  1.0000
  C   C2002     1.0  0.56834  0.00000  0.43167  1.0000
  C   C2003     1.0  0.56834  0.06834  0.50000  1.0000
  C   C2004     1.0  0.56834  0.26501  0.50000  1.0000
  C   C2005     1.0  0.43167  0.06834  0.50000  1.0000
  C   C2006     1.0  0.50000  0.06834  0.56834  1.0000
  C   C2007     1.0  0.50000  0.06834  0.43167  1.0000
  C   C2008     1.0  0.50000  0.26501  0.56834  1.0000
  C   C2009     1.0  0.43167  0.16667  0.40167  1.0000
  C   C2010     1.0  0.43167  0.16667  0.59834  1.0000
  C   C2011     1.0  0.56834  0.16667  0.59834  1.0000
  C   C2012     1.0  0.56834  0.23501  0.33333  1.0000
  C   C2013     1.0  0.56834  0.09834  0.33333  1.0000
  C   C2014     1.0  0.50000  0.23501  0.59834  1.0000
  C   C2015     1.0  0.50000  0.09834  0.59834  1.0000
  C   C2016     1.0  0.50000  0.09834  0.40167  1.0000
  C   C2017     1.0  0.42250  0.00000  0.39480  1.0000
  C   C2018     1.0  0.57750  0.00000  0.39480  1.0000
  C   C2019     1.0  0.57750  0.00000  0.60520  1.0000
  C   C2020     1.0  0.42250  0.00000  0.60520  1.0000
  C   C2021     1.0  0.60520  0.24417  0.33333  1.0000
  C   C2022     1.0  0.60520  0.08916  0.33333  1.0000
  C   C2023     1.0  0.33333  0.06147  0.42250  1.0000
  C   C2024     1.0  0.33333  0.06147  0.57750  1.0000
  C   C2025     1.0  0.33333  0.27187  0.57750  1.0000
  C   C2026     1.0  0.33333  0.08916  0.60520  1.0000
  C   C2027     1.0  0.33333  0.24417  0.60520  1.0000
  C   C2028     1.0  0.33333  0.08916  0.39480  1.0000
  C   C2029     1.0  0.57750  0.06147  0.33333  1.0000
  C   C2030     1.0  0.57750  0.27187  0.33333  1.0000
  C   C2031     1.0  0.39480  0.00000  0.57750  1.0000
  C   C2032     1.0  0.39480  0.00000  0.42250  1.0000
  C   C2033     1.0  0.60520  0.00000  0.42250  1.0000
  C   C2034     1.0  0.60520  0.00000  0.57750  1.0000
  C   C2035     1.0  0.42250  0.16667  0.56147  1.0000
  C   C2036     1.0  0.57750  0.16667  0.56147  1.0000
  C   C2037     1.0  0.42250  0.16667  0.43853  1.0000
  C   C2038     1.0  0.39480  0.07750  0.50000  1.0000
  C   C2039     1.0  0.60520  0.07750  0.50000  1.0000
  C   C2040     1.0  0.60520  0.25585  0.50000  1.0000
  C   C2041     1.0  0.33333  0.22813  0.58918  1.0000
  C   C2042     1.0  0.33333  0.10520  0.41084  1.0000
  C   C2043     1.0  0.33333  0.10520  0.58918  1.0000
  C   C2044     1.0  0.33333  0.07750  0.43853  1.0000
  C   C2045     1.0  0.33333  0.07750  0.56147  1.0000
  C   C2046     1.0  0.33333  0.25585  0.56147  1.0000
  C   C2047     1.0  0.57750  0.22813  0.50000  1.0000
  C   C2048     1.0  0.57750  0.10520  0.50000  1.0000
  C   C2049     1.0  0.42250  0.10520  0.50000  1.0000
  C   C2050     1.0  0.39480  0.16667  0.41084  1.0000
  C   C2051     1.0  0.39480  0.16667  0.58918  1.0000
  C   C2052     1.0  0.60520  0.16667  0.58918  1.0000
  C   C2053     1.0  0.58918  0.00000  0.56147  1.0000
  C   C2054     1.0  0.41084  0.00000  0.56147  1.0000
  C   C2055     1.0  0.41084  0.00000  0.43853  1.0000
  C   C2056     1.0  0.58918  0.00000  0.43853  1.0000
  C   C2057     1.0  0.56147  0.08916  0.50000  1.0000
  C   C2058     1.0  0.56147  0.24417  0.50000  1.0000
  C   C2059     1.0  0.43853  0.08916  0.50000  1.0000
  C   C2060     1.0  0.50000  0.06147  0.58918  1.0000
  C   C2061     1.0  0.50000  0.06147  0.41084  1.0000
  C   C2062     1.0  0.50000  0.27187  0.58918  1.0000
  C   C2063     1.0  0.50000  0.08916  0.43853  1.0000
  C   C2064     1.0  0.50000  0.24417  0.56147  1.0000
  C   C2065     1.0  0.50000  0.08916  0.56147  1.0000
  C   C2066     1.0  0.58918  0.06147  0.50000  1.0000
  C   C2067     1.0  0.41084  0.06147  0.50000  1.0000
  C   C2068     1.0  0.58918  0.27187  0.50000  1.0000
  C   C2069     1.0  0.56147  0.00000  0.41084  1.0000
  C   C2070     1.0  0.56147  0.00000  0.58918  1.0000
  C   C2071     1.0  0.43853  0.00000  0.58918  1.0000
  C   C2072     1.0  0.43853  0.00000  0.41084  1.0000
  C   C2073     1.0  0.41084  0.16667  0.39480  1.0000
  C   C2074     1.0  0.41084  0.16667  0.60520  1.0000
  C   C2075     1.0  0.58918  0.16667  0.60520  1.0000
  C   C2076     1.0  0.56147  0.25585  0.33333  1.0000
  C   C2077     1.0  0.56147  0.07750  0.33333  1.0000
  C   C2078     1.0  0.50000  0.22813  0.57750  1.0000
  C   C2079     1.0  0.50000  0.10520  0.57750  1.0000
  C   C2080     1.0  0.50000  0.10520  0.42250  1.0000
  C   C2081     1.0  0.50000  0.25585  0.60520  1.0000
  C   C2082     1.0  0.50000  0.07750  0.60520  1.0000
  C   C2083     1.0  0.50000  0.07750  0.39480  1.0000
  C   C2084     1.0  0.58918  0.22813  0.33333  1.0000
  C   C2085     1.0  0.58918  0.10520  0.33333  1.0000
  C   C2086     1.0  0.56147  0.16667  0.57750  1.0000
  C   C2087     1.0  0.43853  0.16667  0.42250  1.0000
  C   C2088     1.0  0.43853  0.16667  0.57750  1.0000
  H   H905      1.0  0.42634  0.00000  0.37863  1.0000
  H   H906      1.0  0.57366  0.00000  0.37863  1.0000
  H   H907      1.0  0.57366  0.00000  0.62137  1.0000
  H   H908      1.0  0.42634  0.00000  0.62137  1.0000
  H   H909      1.0  0.62137  0.24032  0.33333  1.0000
  H   H910      1.0  0.62137  0.09301  0.33333  1.0000
  H   H911      1.0  0.33333  0.04530  0.42634  1.0000
  H   H912      1.0  0.33333  0.04530  0.57366  1.0000
  H   H913      1.0  0.33333  0.28804  0.57366  1.0000
  H   H914      1.0  0.33333  0.09301  0.62137  1.0000
  H   H915      1.0  0.33333  0.24032  0.62137  1.0000
  H   H916      1.0  0.33333  0.09301  0.37863  1.0000
  H   H917      1.0  0.57366  0.04530  0.33333  1.0000
  H   H918      1.0  0.57366  0.28804  0.33333  1.0000
  H   H919      1.0  0.37863  0.00000  0.57366  1.0000
  H   H920      1.0  0.37863  0.00000  0.42634  1.0000
  H   H921      1.0  0.62137  0.00000  0.42634  1.0000
  H   H922      1.0  0.62137  0.00000  0.57366  1.0000
  H   H923      1.0  0.42634  0.16667  0.54530  1.0000
  H   H924      1.0  0.57366  0.16667  0.54530  1.0000
  H   H925      1.0  0.42634  0.16667  0.45470  1.0000
  H   H926      1.0  0.37863  0.07366  0.50000  1.0000
  H   H927      1.0  0.62137  0.07366  0.50000  1.0000
  H   H928      1.0  0.62137  0.25968  0.50000  1.0000
  H   H929      1.0  0.33333  0.21196  0.59301  1.0000
  H   H930      1.0  0.33333  0.12137  0.40699  1.0000
  H   H931      1.0  0.33333  0.12137  0.59301  1.0000
  H   H932      1.0  0.33333  0.07366  0.45470  1.0000
  H   H933      1.0  0.33333  0.07366  0.54530  1.0000
  H   H934      1.0  0.33333  0.25968  0.54530  1.0000
  H   H935      1.0  0.57366  0.21196  0.50000  1.0000
  H   H936      1.0  0.57366  0.12137  0.50000  1.0000
  H   H937      1.0  0.42634  0.12137  0.50000  1.0000
  H   H938      1.0  0.37863  0.16667  0.40699  1.0000
  H   H939      1.0  0.37863  0.16667  0.59301  1.0000
  H   H940      1.0  0.62137  0.16667  0.59301  1.0000
  H   H941      1.0  0.59301  0.00000  0.54530  1.0000
  H   H942      1.0  0.40699  0.00000  0.54530  1.0000
  H   H943      1.0  0.40699  0.00000  0.45470  1.0000
  H   H944      1.0  0.59301  0.00000  0.45470  1.0000
  H   H945      1.0  0.54530  0.09301  0.50000  1.0000
  H   H946      1.0  0.54530  0.24032  0.50000  1.0000
  H   H947      1.0  0.45470  0.09301  0.50000  1.0000
  H   H948      1.0  0.50000  0.04530  0.59301  1.0000
  H   H949      1.0  0.50000  0.04530  0.40699  1.0000
  H   H950      1.0  0.50000  0.28804  0.59301  1.0000
  H   H951      1.0  0.50000  0.09301  0.45470  1.0000
  H   H952      1.0  0.50000  0.24032  0.54530  1.0000
  H   H953      1.0  0.50000  0.09301  0.54530  1.0000
  H   H954      1.0  0.59301  0.04530  0.50000  1.0000
  H   H955      1.0  0.40699  0.04530  0.50000  1.0000
  H   H956      1.0  0.59301  0.28804  0.50000  1.0000
  H   H957      1.0  0.54530  0.00000  0.40699  1.0000
  H   H958      1.0  0.54530  0.00000  0.59301  1.0000
  H   H959      1.0  0.45470  0.00000  0.59301  1.0000
  H   H960      1.0  0.45470  0.00000  0.40699  1.0000
  H   H961      1.0  0.40699  0.16667  0.37863  1.0000
  H   H962      1.0  0.40699  0.16667  0.62137  1.0000
  H   H963      1.0  0.59301  0.16667  0.62137  1.0000
  H   H964      1.0  0.54530  0.25968  0.33333  1.0000
  H   H965      1.0  0.54530  0.07366  0.33333  1.0000
  H   H966      1.0  0.50000  0.21196  0.57366  1.0000
  H   H967      1.0  0.50000  0.12137  0.57366  1.0000
  H   H968      1.0  0.50000  0.12137  0.42634  1.0000
  H   H969      1.0  0.50000  0.25968  0.62137  1.0000
  H   H970      1.0  0.50000  0.07366  0.62137  1.0000
  H   H971      1.0  0.50000  0.07366  0.37863  1.0000
  H   H972      1.0  0.59301  0.21196  0.33333  1.0000
  H   H973      1.0  0.59301  0.12137  0.33333  1.0000
  H   H974      1.0  0.54530  0.16667  0.57366  1.0000
  H   H975      1.0  0.45470  0.16667  0.42634  1.0000
  H   H976      1.0  0.45470  0.16667  0.57366  1.0000
  Zr  Zr313     1.0  0.37330  0.33333  0.33333  1.0000
  Zr  Zr314     1.0  0.62671  0.33333  0.33333  1.0000
  Zr  Zr315     1.0  0.33333  0.37330  0.33333  1.0000
  Zr  Zr316     1.0  0.33333  0.62671  0.33333  1.0000
  Zr  Zr317     1.0  0.33333  0.33333  0.37330  1.0000
  Zr  Zr318     1.0  0.33333  0.33333  0.62671  1.0000
  Zr  Zr319     1.0  0.37330  0.50000  0.50000  1.0000
  Zr  Zr320     1.0  0.62671  0.50000  0.50000  1.0000
  Zr  Zr321     1.0  0.33333  0.53997  0.50000  1.0000
  Zr  Zr322     1.0  0.33333  0.46003  0.50000  1.0000
  Zr  Zr323     1.0  0.33333  0.50000  0.53997  1.0000
  Zr  Zr324     1.0  0.33333  0.50000  0.46003  1.0000
  Zr  Zr325     1.0  0.53997  0.33333  0.50000  1.0000
  Zr  Zr326     1.0  0.46003  0.33333  0.50000  1.0000
  Zr  Zr327     1.0  0.50000  0.37330  0.50000  1.0000
  Zr  Zr328     1.0  0.50000  0.62671  0.50000  1.0000
  Zr  Zr329     1.0  0.50000  0.33333  0.53997  1.0000
  Zr  Zr330     1.0  0.50000  0.33333  0.46003  1.0000
  Zr  Zr331     1.0  0.53997  0.50000  0.33333  1.0000
  Zr  Zr332     1.0  0.46003  0.50000  0.33333  1.0000
  Zr  Zr333     1.0  0.50000  0.53997  0.33333  1.0000
  Zr  Zr334     1.0  0.50000  0.46003  0.33333  1.0000
  Zr  Zr335     1.0  0.50000  0.50000  0.37330  1.0000
  Zr  Zr336     1.0  0.50000  0.50000  0.62671  1.0000
  O   O1665     1.0  0.39016  0.33333  0.36510  1.0000
  O   O1666     1.0  0.60986  0.33333  0.36510  1.0000
  O   O1667     1.0  0.60986  0.33333  0.63491  1.0000
  O   O1668     1.0  0.39016  0.33333  0.63491  1.0000
  O   O1669     1.0  0.36510  0.39016  0.33333  1.0000
  O   O1670     1.0  0.36510  0.60986  0.33333  1.0000
  O   O1671     1.0  0.63491  0.60986  0.33333  1.0000
  O   O1672     1.0  0.63491  0.39016  0.33333  1.0000
  O   O1673     1.0  0.33333  0.36510  0.39016  1.0000
  O   O1674     1.0  0.33333  0.36510  0.60986  1.0000
  O   O1675     1.0  0.33333  0.63491  0.60986  1.0000
  O   O1676     1.0  0.33333  0.63491  0.39016  1.0000
  O   O1677     1.0  0.33333  0.39016  0.63491  1.0000
  O   O1678     1.0  0.33333  0.60986  0.63491  1.0000
  O   O1679     1.0  0.33333  0.60986  0.36510  1.0000
  O   O1680     1.0  0.33333  0.39016  0.36510  1.0000
  O   O1681     1.0  0.39016  0.36510  0.33333  1.0000
  O   O1682     1.0  0.60986  0.36510  0.33333  1.0000
  O   O1683     1.0  0.60986  0.63491  0.33333  1.0000
  O   O1684     1.0  0.39016  0.63491  0.33333  1.0000
  O   O1685     1.0  0.36510  0.33333  0.60986  1.0000
  O   O1686     1.0  0.36510  0.33333  0.39016  1.0000
  O   O1687     1.0  0.63491  0.33333  0.39016  1.0000
  O   O1688     1.0  0.63491  0.33333  0.60986  1.0000
  O   O1689     1.0  0.39016  0.50000  0.53177  1.0000
  O   O1690     1.0  0.60986  0.50000  0.53177  1.0000
  O   O1691     1.0  0.60986  0.50000  0.46823  1.0000
  O   O1692     1.0  0.39016  0.50000  0.46823  1.0000
  O   O1693     1.0  0.36510  0.55683  0.50000  1.0000
  O   O1694     1.0  0.36510  0.44317  0.50000  1.0000
  O   O1695     1.0  0.63491  0.44317  0.50000  1.0000
  O   O1696     1.0  0.63491  0.55683  0.50000  1.0000
  O   O1697     1.0  0.33333  0.53177  0.55683  1.0000
  O   O1698     1.0  0.33333  0.53177  0.44317  1.0000
  O   O1699     1.0  0.33333  0.46823  0.44317  1.0000
  O   O1700     1.0  0.33333  0.46823  0.55683  1.0000
  O   O1701     1.0  0.33333  0.55683  0.46823  1.0000
  O   O1702     1.0  0.33333  0.44317  0.46823  1.0000
  O   O1703     1.0  0.33333  0.44317  0.53177  1.0000
  O   O1704     1.0  0.33333  0.55683  0.53177  1.0000
  O   O1705     1.0  0.39016  0.53177  0.50000  1.0000
  O   O1706     1.0  0.60986  0.53177  0.50000  1.0000
  O   O1707     1.0  0.60986  0.46823  0.50000  1.0000
  O   O1708     1.0  0.39016  0.46823  0.50000  1.0000
  O   O1709     1.0  0.36510  0.50000  0.44317  1.0000
  O   O1710     1.0  0.36510  0.50000  0.55683  1.0000
  O   O1711     1.0  0.63491  0.50000  0.55683  1.0000
  O   O1712     1.0  0.63491  0.50000  0.44317  1.0000
  O   O1713     1.0  0.55683  0.33333  0.53177  1.0000
  O   O1714     1.0  0.44317  0.33333  0.53177  1.0000
  O   O1715     1.0  0.44317  0.33333  0.46823  1.0000
  O   O1716     1.0  0.55683  0.33333  0.46823  1.0000
  O   O1717     1.0  0.53177  0.39016  0.50000  1.0000
  O   O1718     1.0  0.53177  0.60986  0.50000  1.0000
  O   O1719     1.0  0.46823  0.60986  0.50000  1.0000
  O   O1720     1.0  0.46823  0.39016  0.50000  1.0000
  O   O1721     1.0  0.50000  0.36510  0.55683  1.0000
  O   O1722     1.0  0.50000  0.36510  0.44317  1.0000
  O   O1723     1.0  0.50000  0.63491  0.44317  1.0000
  O   O1724     1.0  0.50000  0.63491  0.55683  1.0000
  O   O1725     1.0  0.50000  0.39016  0.46823  1.0000
  O   O1726     1.0  0.50000  0.60986  0.46823  1.0000
  O   O1727     1.0  0.50000  0.60986  0.53177  1.0000
  O   O1728     1.0  0.50000  0.39016  0.53177  1.0000
  O   O1729     1.0  0.55683  0.36510  0.50000  1.0000
  O   O1730     1.0  0.44317  0.36510  0.50000  1.0000
  O   O1731     1.0  0.44317  0.63491  0.50000  1.0000
  O   O1732     1.0  0.55683  0.63491  0.50000  1.0000
  O   O1733     1.0  0.53177  0.33333  0.44317  1.0000
  O   O1734     1.0  0.53177  0.33333  0.55683  1.0000
  O   O1735     1.0  0.46823  0.33333  0.55683  1.0000
  O   O1736     1.0  0.46823  0.33333  0.44317  1.0000
  O   O1737     1.0  0.55683  0.50000  0.36510  1.0000
  O   O1738     1.0  0.44317  0.50000  0.36510  1.0000
  O   O1739     1.0  0.44317  0.50000  0.63491  1.0000
  O   O1740     1.0  0.55683  0.50000  0.63491  1.0000
  O   O1741     1.0  0.53177  0.55683  0.33333  1.0000
  O   O1742     1.0  0.53177  0.44317  0.33333  1.0000
  O   O1743     1.0  0.46823  0.44317  0.33333  1.0000
  O   O1744     1.0  0.46823  0.55683  0.33333  1.0000
  O   O1745     1.0  0.50000  0.53177  0.39016  1.0000
  O   O1746     1.0  0.50000  0.53177  0.60986  1.0000
  O   O1747     1.0  0.50000  0.46823  0.60986  1.0000
  O   O1748     1.0  0.50000  0.46823  0.39016  1.0000
  O   O1749     1.0  0.50000  0.55683  0.63491  1.0000
  O   O1750     1.0  0.50000  0.44317  0.63491  1.0000
  O   O1751     1.0  0.50000  0.44317  0.36510  1.0000
  O   O1752     1.0  0.50000  0.55683  0.36510  1.0000
  O   O1753     1.0  0.55683  0.53177  0.33333  1.0000
  O   O1754     1.0  0.44317  0.53177  0.33333  1.0000
  O   O1755     1.0  0.44317  0.46823  0.33333  1.0000
  O   O1756     1.0  0.55683  0.46823  0.33333  1.0000
  O   O1757     1.0  0.53177  0.50000  0.60986  1.0000
  O   O1758     1.0  0.53177  0.50000  0.39016  1.0000
  O   O1759     1.0  0.46823  0.50000  0.39016  1.0000
  O   O1760     1.0  0.46823  0.50000  0.60986  1.0000
  O   O1761     1.0  0.35203  0.64797  0.64797  1.0000
  O   O1762     1.0  0.64797  0.35203  0.64797  1.0000
  O   O1763     1.0  0.64797  0.64797  0.35203  1.0000
  O   O1764     1.0  0.35203  0.35203  0.35203  1.0000
  O   O1765     1.0  0.64797  0.35203  0.35203  1.0000
  O   O1766     1.0  0.35203  0.64797  0.35203  1.0000
  O   O1767     1.0  0.64797  0.64797  0.64797  1.0000
  O   O1768     1.0  0.35203  0.35203  0.64797  1.0000
  O   O1769     1.0  0.35203  0.48130  0.48130  1.0000
  O   O1770     1.0  0.64797  0.51870  0.48130  1.0000
  O   O1771     1.0  0.64797  0.48130  0.51870  1.0000
  O   O1772     1.0  0.35203  0.51870  0.51870  1.0000
  O   O1773     1.0  0.64797  0.51870  0.51870  1.0000
  O   O1774     1.0  0.35203  0.48130  0.51870  1.0000
  O   O1775     1.0  0.64797  0.48130  0.48130  1.0000
  O   O1776     1.0  0.35203  0.51870  0.48130  1.0000
  O   O1777     1.0  0.51870  0.64797  0.48130  1.0000
  O   O1778     1.0  0.48130  0.35203  0.48130  1.0000
  O   O1779     1.0  0.48130  0.64797  0.51870  1.0000
  O   O1780     1.0  0.51870  0.35203  0.51870  1.0000
  O   O1781     1.0  0.48130  0.35203  0.51870  1.0000
  O   O1782     1.0  0.51870  0.64797  0.51870  1.0000
  O   O1783     1.0  0.48130  0.64797  0.48130  1.0000
  O   O1784     1.0  0.51870  0.35203  0.48130  1.0000
  O   O1785     1.0  0.51870  0.48130  0.64797  1.0000
  O   O1786     1.0  0.48130  0.51870  0.64797  1.0000
  O   O1787     1.0  0.48130  0.48130  0.35203  1.0000
  O   O1788     1.0  0.51870  0.51870  0.35203  1.0000
  O   O1789     1.0  0.48130  0.51870  0.35203  1.0000
  O   O1790     1.0  0.51870  0.48130  0.35203  1.0000
  O   O1791     1.0  0.48130  0.48130  0.64797  1.0000
  O   O1792     1.0  0.51870  0.51870  0.64797  1.0000
  C   C2089     1.0  0.38454  0.33333  0.61548  1.0000
  C   C2090     1.0  0.61548  0.33333  0.61548  1.0000
  C   C2091     1.0  0.61548  0.33333  0.38454  1.0000
  C   C2092     1.0  0.38454  0.33333  0.38454  1.0000
  C   C2093     1.0  0.61548  0.38454  0.33333  1.0000
  C   C2094     1.0  0.61548  0.61548  0.33333  1.0000
  C   C2095     1.0  0.38454  0.61548  0.33333  1.0000
  C   C2096     1.0  0.38454  0.38454  0.33333  1.0000
  C   C2097     1.0  0.33333  0.61548  0.38454  1.0000
  C   C2098     1.0  0.33333  0.61548  0.61548  1.0000
  C   C2099     1.0  0.33333  0.38454  0.61548  1.0000
  C   C2100     1.0  0.33333  0.38454  0.38454  1.0000
  C   C2101     1.0  0.38454  0.50000  0.44881  1.0000
  C   C2102     1.0  0.61548  0.50000  0.44881  1.0000
  C   C2103     1.0  0.61548  0.50000  0.55121  1.0000
  C   C2104     1.0  0.38454  0.50000  0.55121  1.0000
  C   C2105     1.0  0.61548  0.55121  0.50000  1.0000
  C   C2106     1.0  0.61548  0.44881  0.50000  1.0000
  C   C2107     1.0  0.38454  0.44881  0.50000  1.0000
  C   C2108     1.0  0.38454  0.55121  0.50000  1.0000
  C   C2109     1.0  0.33333  0.44881  0.55121  1.0000
  C   C2110     1.0  0.33333  0.44881  0.44881  1.0000
  C   C2111     1.0  0.33333  0.55121  0.44881  1.0000
  C   C2112     1.0  0.33333  0.55121  0.55121  1.0000
  C   C2113     1.0  0.55121  0.33333  0.44881  1.0000
  C   C2114     1.0  0.44881  0.33333  0.44881  1.0000
  C   C2115     1.0  0.44881  0.33333  0.55121  1.0000
  C   C2116     1.0  0.55121  0.33333  0.55121  1.0000
  C   C2117     1.0  0.44881  0.38454  0.50000  1.0000
  C   C2118     1.0  0.44881  0.61548  0.50000  1.0000
  C   C2119     1.0  0.55121  0.61548  0.50000  1.0000
  C   C2120     1.0  0.55121  0.38454  0.50000  1.0000
  C   C2121     1.0  0.50000  0.61548  0.55121  1.0000
  C   C2122     1.0  0.50000  0.61548  0.44881  1.0000
  C   C2123     1.0  0.50000  0.38454  0.44881  1.0000
  C   C2124     1.0  0.50000  0.38454  0.55121  1.0000
  C   C2125     1.0  0.55121  0.50000  0.61548  1.0000
  C   C2126     1.0  0.44881  0.50000  0.61548  1.0000
  C   C2127     1.0  0.44881  0.50000  0.38454  1.0000
  C   C2128     1.0  0.55121  0.50000  0.38454  1.0000
  C   C2129     1.0  0.44881  0.55121  0.33333  1.0000
  C   C2130     1.0  0.44881  0.44881  0.33333  1.0000
  C   C2131     1.0  0.55121  0.44881  0.33333  1.0000
  C   C2132     1.0  0.55121  0.55121  0.33333  1.0000
  C   C2133     1.0  0.50000  0.44881  0.38454  1.0000
  C   C2134     1.0  0.50000  0.44881  0.61548  1.0000
  C   C2135     1.0  0.50000  0.55121  0.61548  1.0000
  C   C2136     1.0  0.50000  0.55121  0.38454  1.0000
  C   C2137     1.0  0.40167  0.33333  0.40167  1.0000
  C   C2138     1.0  0.59834  0.33333  0.59834  1.0000
  C   C2139     1.0  0.40167  0.33333  0.59834  1.0000
  C   C2140     1.0  0.40167  0.40167  0.33333  1.0000
  C   C2141     1.0  0.40167  0.59834  0.33333  1.0000
  C   C2142     1.0  0.59834  0.59834  0.33333  1.0000
  C   C2143     1.0  0.59834  0.40167  0.33333  1.0000
  C   C2144     1.0  0.33333  0.40167  0.40167  1.0000
  C   C2145     1.0  0.33333  0.40167  0.59834  1.0000
  C   C2146     1.0  0.33333  0.59834  0.59834  1.0000
  C   C2147     1.0  0.33333  0.59834  0.40167  1.0000
  C   C2148     1.0  0.40167  0.50000  0.56834  1.0000
  C   C2149     1.0  0.59834  0.50000  0.56834  1.0000
  C   C2150     1.0  0.59834  0.50000  0.43167  1.0000
  C   C2151     1.0  0.40167  0.50000  0.43167  1.0000
  C   C2152     1.0  0.40167  0.43167  0.50000  1.0000
  C   C2153     1.0  0.59834  0.56834  0.50000  1.0000
  C   C2154     1.0  0.33333  0.56834  0.56834  1.0000
  C   C2155     1.0  0.33333  0.56834  0.43167  1.0000
  C   C2156     1.0  0.33333  0.43167  0.43167  1.0000
  C   C2157     1.0  0.33333  0.43167  0.56834  1.0000
  C   C2158     1.0  0.56834  0.33333  0.56834  1.0000
  C   C2159     1.0  0.43167  0.33333  0.56834  1.0000
  C   C2160     1.0  0.43167  0.33333  0.43167  1.0000
  C   C2161     1.0  0.56834  0.59834  0.50000  1.0000
  C   C2162     1.0  0.43167  0.40167  0.50000  1.0000
  C   C2163     1.0  0.50000  0.40167  0.56834  1.0000
  C   C2164     1.0  0.50000  0.40167  0.43167  1.0000
  C   C2165     1.0  0.50000  0.59834  0.43167  1.0000
  C   C2166     1.0  0.50000  0.59834  0.56834  1.0000
  C   C2167     1.0  0.56834  0.50000  0.40167  1.0000
  C   C2168     1.0  0.43167  0.50000  0.40167  1.0000
  C   C2169     1.0  0.43167  0.50000  0.59834  1.0000
  C   C2170     1.0  0.56834  0.50000  0.59834  1.0000
  C   C2171     1.0  0.56834  0.56834  0.33333  1.0000
  C   C2172     1.0  0.56834  0.43167  0.33333  1.0000
  C   C2173     1.0  0.43167  0.43167  0.33333  1.0000
  C   C2174     1.0  0.43167  0.56834  0.33333  1.0000
  C   C2175     1.0  0.50000  0.56834  0.40167  1.0000
  C   C2176     1.0  0.50000  0.56834  0.59834  1.0000
  C   C2177     1.0  0.50000  0.43167  0.59834  1.0000
  C   C2178     1.0  0.50000  0.43167  0.40167  1.0000
  C   C2179     1.0  0.42250  0.33333  0.39480  1.0000
  C   C2180     1.0  0.57750  0.33333  0.60520  1.0000
  C   C2181     1.0  0.42250  0.33333  0.60520  1.0000
  C   C2182     1.0  0.39480  0.42250  0.33333  1.0000
  C   C2183     1.0  0.39480  0.57750  0.33333  1.0000
  C   C2184     1.0  0.60520  0.57750  0.33333  1.0000
  C   C2185     1.0  0.60520  0.42250  0.33333  1.0000
  C   C2186     1.0  0.33333  0.39480  0.42250  1.0000
  C   C2187     1.0  0.33333  0.39480  0.57750  1.0000
  C   C2188     1.0  0.33333  0.60520  0.57750  1.0000
  C   C2189     1.0  0.33333  0.60520  0.42250  1.0000
  C   C2190     1.0  0.33333  0.42250  0.60520  1.0000
  C   C2191     1.0  0.33333  0.57750  0.60520  1.0000
  C   C2192     1.0  0.33333  0.57750  0.39480  1.0000
  C   C2193     1.0  0.33333  0.42250  0.39480  1.0000
  C   C2194     1.0  0.42250  0.39480  0.33333  1.0000
  C   C2195     1.0  0.57750  0.39480  0.33333  1.0000
  C   C2196     1.0  0.57750  0.60520  0.33333  1.0000
  C   C2197     1.0  0.42250  0.60520  0.33333  1.0000
  C   C2198     1.0  0.39480  0.33333  0.57750  1.0000
  C   C2199     1.0  0.39480  0.33333  0.42250  1.0000
  C   C2200     1.0  0.60520  0.33333  0.57750  1.0000
  C   C2201     1.0  0.42250  0.50000  0.56147  1.0000
  C   C2202     1.0  0.57750  0.50000  0.56147  1.0000
  C   C2203     1.0  0.57750  0.50000  0.43853  1.0000
  C   C2204     1.0  0.42250  0.50000  0.43853  1.0000
  C   C2205     1.0  0.39480  0.41084  0.50000  1.0000
  C   C2206     1.0  0.60520  0.58918  0.50000  1.0000
  C   C2207     1.0  0.33333  0.56147  0.58918  1.0000
  C   C2208     1.0  0.33333  0.56147  0.41084  1.0000
  C   C2209     1.0  0.33333  0.43853  0.41084  1.0000
  C   C2210     1.0  0.33333  0.43853  0.58918  1.0000
  C   C2211     1.0  0.33333  0.58918  0.43853  1.0000
  C   C2212     1.0  0.33333  0.41084  0.43853  1.0000
  C   C2213     1.0  0.33333  0.41084  0.56147  1.0000
  C   C2214     1.0  0.33333  0.58918  0.56147  1.0000
  C   C2215     1.0  0.57750  0.56147  0.50000  1.0000
  C   C2216     1.0  0.42250  0.43853  0.50000  1.0000
  C   C2217     1.0  0.39480  0.50000  0.41084  1.0000
  C   C2218     1.0  0.39480  0.50000  0.58918  1.0000
  C   C2219     1.0  0.60520  0.50000  0.58918  1.0000
  C   C2220     1.0  0.60520  0.50000  0.41084  1.0000
  C   C2221     1.0  0.58918  0.33333  0.56147  1.0000
  C   C2222     1.0  0.41084  0.33333  0.56147  1.0000
  C   C2223     1.0  0.41084  0.33333  0.43853  1.0000
  C   C2224     1.0  0.56147  0.57750  0.50000  1.0000
  C   C2225     1.0  0.43853  0.42250  0.50000  1.0000
  C   C2226     1.0  0.50000  0.39480  0.58918  1.0000
  C   C2227     1.0  0.50000  0.39480  0.41084  1.0000
  C   C2228     1.0  0.50000  0.60520  0.41084  1.0000
  C   C2229     1.0  0.50000  0.60520  0.58918  1.0000
  C   C2230     1.0  0.50000  0.42250  0.43853  1.0000
  C   C2231     1.0  0.50000  0.57750  0.43853  1.0000
  C   C2232     1.0  0.50000  0.57750  0.56147  1.0000
  C   C2233     1.0  0.50000  0.42250  0.56147  1.0000
  C   C2234     1.0  0.41084  0.39480  0.50000  1.0000
  C   C2235     1.0  0.58918  0.60520  0.50000  1.0000
  C   C2236     1.0  0.56147  0.33333  0.58918  1.0000
  C   C2237     1.0  0.43853  0.33333  0.58918  1.0000
  C   C2238     1.0  0.43853  0.33333  0.41084  1.0000
  C   C2239     1.0  0.58918  0.50000  0.39480  1.0000
  C   C2240     1.0  0.41084  0.50000  0.39480  1.0000
  C   C2241     1.0  0.41084  0.50000  0.60520  1.0000
  C   C2242     1.0  0.58918  0.50000  0.60520  1.0000
  C   C2243     1.0  0.56147  0.58918  0.33333  1.0000
  C   C2244     1.0  0.56147  0.41084  0.33333  1.0000
  C   C2245     1.0  0.43853  0.41084  0.33333  1.0000
  C   C2246     1.0  0.43853  0.58918  0.33333  1.0000
  C   C2247     1.0  0.50000  0.56147  0.42250  1.0000
  C   C2248     1.0  0.50000  0.56147  0.57750  1.0000
  C   C2249     1.0  0.50000  0.43853  0.57750  1.0000
  C   C2250     1.0  0.50000  0.43853  0.42250  1.0000
  C   C2251     1.0  0.50000  0.58918  0.60520  1.0000
  C   C2252     1.0  0.50000  0.41084  0.60520  1.0000
  C   C2253     1.0  0.50000  0.41084  0.39480  1.0000
  C   C2254     1.0  0.50000  0.58918  0.39480  1.0000
  C   C2255     1.0  0.58918  0.56147  0.33333  1.0000
  C   C2256     1.0  0.41084  0.56147  0.33333  1.0000
  C   C2257     1.0  0.41084  0.43853  0.33333  1.0000
  C   C2258     1.0  0.58918  0.43853  0.33333  1.0000
  C   C2259     1.0  0.56147  0.50000  0.57750  1.0000
  C   C2260     1.0  0.56147  0.50000  0.42250  1.0000
  C   C2261     1.0  0.43853  0.50000  0.42250  1.0000
  C   C2262     1.0  0.43853  0.50000  0.57750  1.0000
  H   H977      1.0  0.42634  0.33333  0.37863  1.0000
  H   H978      1.0  0.57366  0.33333  0.62137  1.0000
  H   H979      1.0  0.42634  0.33333  0.62137  1.0000
  H   H980      1.0  0.37863  0.42634  0.33333  1.0000
  H   H981      1.0  0.37863  0.57366  0.33333  1.0000
  H   H982      1.0  0.62137  0.57366  0.33333  1.0000
  H   H983      1.0  0.62137  0.42634  0.33333  1.0000
  H   H984      1.0  0.33333  0.37863  0.42634  1.0000
  H   H985      1.0  0.33333  0.37863  0.57366  1.0000
  H   H986      1.0  0.33333  0.62137  0.57366  1.0000
  H   H987      1.0  0.33333  0.62137  0.42634  1.0000
  H   H988      1.0  0.33333  0.42634  0.62137  1.0000
  H   H989      1.0  0.33333  0.57366  0.62137  1.0000
  H   H990      1.0  0.33333  0.57366  0.37863  1.0000
  H   H991      1.0  0.33333  0.42634  0.37863  1.0000
  H   H992      1.0  0.42634  0.37863  0.33333  1.0000
  H   H993      1.0  0.57366  0.37863  0.33333  1.0000
  H   H994      1.0  0.57366  0.62137  0.33333  1.0000
  H   H995      1.0  0.42634  0.62137  0.33333  1.0000
  H   H996      1.0  0.37863  0.33333  0.57366  1.0000
  H   H997      1.0  0.37863  0.33333  0.42634  1.0000
  H   H998      1.0  0.62137  0.33333  0.57366  1.0000
  H   H999      1.0  0.42634  0.50000  0.54530  1.0000
  H   H1000     1.0  0.57366  0.50000  0.54530  1.0000
  H   H1001     1.0  0.57366  0.50000  0.45470  1.0000
  H   H1002     1.0  0.42634  0.50000  0.45470  1.0000
  H   H1003     1.0  0.37863  0.40699  0.50000  1.0000
  H   H1004     1.0  0.62137  0.59301  0.50000  1.0000
  H   H1005     1.0  0.33333  0.54530  0.59301  1.0000
  H   H1006     1.0  0.33333  0.54530  0.40699  1.0000
  H   H1007     1.0  0.33333  0.45470  0.40699  1.0000
  H   H1008     1.0  0.33333  0.45470  0.59301  1.0000
  H   H1009     1.0  0.33333  0.59301  0.45470  1.0000
  H   H1010     1.0  0.33333  0.40699  0.45470  1.0000
  H   H1011     1.0  0.33333  0.40699  0.54530  1.0000
  H   H1012     1.0  0.33333  0.59301  0.54530  1.0000
  H   H1013     1.0  0.57366  0.54530  0.50000  1.0000
  H   H1014     1.0  0.42634  0.45470  0.50000  1.0000
  H   H1015     1.0  0.37863  0.50000  0.40699  1.0000
  H   H1016     1.0  0.37863  0.50000  0.59301  1.0000
  H   H1017     1.0  0.62137  0.50000  0.59301  1.0000
  H   H1018     1.0  0.62137  0.50000  0.40699  1.0000
  H   H1019     1.0  0.59301  0.33333  0.54530  1.0000
  H   H1020     1.0  0.40699  0.33333  0.54530  1.0000
  H   H1021     1.0  0.40699  0.33333  0.45470  1.0000
  H   H1022     1.0  0.54530  0.57366  0.50000  1.0000
  H   H1023     1.0  0.45470  0.42634  0.50000  1.0000
  H   H1024     1.0  0.50000  0.37863  0.59301  1.0000
  H   H1025     1.0  0.50000  0.37863  0.40699  1.0000
  H   H1026     1.0  0.50000  0.62137  0.40699  1.0000
  H   H1027     1.0  0.50000  0.62137  0.59301  1.0000
  H   H1028     1.0  0.50000  0.42634  0.45470  1.0000
  H   H1029     1.0  0.50000  0.57366  0.45470  1.0000
  H   H1030     1.0  0.50000  0.57366  0.54530  1.0000
  H   H1031     1.0  0.50000  0.42634  0.54530  1.0000
  H   H1032     1.0  0.40699  0.37863  0.50000  1.0000
  H   H1033     1.0  0.59301  0.62137  0.50000  1.0000
  H   H1034     1.0  0.54530  0.33333  0.59301  1.0000
  H   H1035     1.0  0.45470  0.33333  0.59301  1.0000
  H   H1036     1.0  0.45470  0.33333  0.40699  1.0000
  H   H1037     1.0  0.59301  0.50000  0.37863  1.0000
  H   H1038     1.0  0.40699  0.50000  0.37863  1.0000
  H   H1039     1.0  0.40699  0.50000  0.62137  1.0000
  H   H1040     1.0  0.59301  0.50000  0.62137  1.0000
  H   H1041     1.0  0.54530  0.59301  0.33333  1.0000
  H   H1042     1.0  0.54530  0.40699  0.33333  1.0000
  H   H1043     1.0  0.45470  0.40699  0.33333  1.0000
  H   H1044     1.0  0.45470  0.59301  0.33333  1.0000
  H   H1045     1.0  0.50000  0.54530  0.42634  1.0000
  H   H1046     1.0  0.50000  0.54530  0.57366  1.0000
  H   H1047     1.0  0.50000  0.45470  0.57366  1.0000
  H   H1048     1.0  0.50000  0.45470  0.42634  1.0000
  H   H1049     1.0  0.50000  0.59301  0.62137  1.0000
  H   H1050     1.0  0.50000  0.40699  0.62137  1.0000
  H   H1051     1.0  0.50000  0.40699  0.37863  1.0000
  H   H1052     1.0  0.50000  0.59301  0.37863  1.0000
  H   H1053     1.0  0.59301  0.54530  0.33333  1.0000
  H   H1054     1.0  0.40699  0.54530  0.33333  1.0000
  H   H1055     1.0  0.40699  0.45470  0.33333  1.0000
  H   H1056     1.0  0.59301  0.45470  0.33333  1.0000
  H   H1057     1.0  0.54530  0.50000  0.57366  1.0000
  H   H1058     1.0  0.54530  0.50000  0.42634  1.0000
  H   H1059     1.0  0.45470  0.50000  0.42634  1.0000
  H   H1060     1.0  0.45470  0.50000  0.57366  1.0000
  Zr  Zr337     1.0  0.37330  0.66667  0.33333  1.0000
  Zr  Zr338     1.0  0.62671  0.66667  0.33333  1.0000
  Zr  Zr339     1.0  0.33333  0.70663  0.33333  1.0000
  Zr  Zr340     1.0  0.33333  0.96005  0.33333  1.0000
  Zr  Zr341     1.0  0.33333  0.66667  0.37330  1.0000
  Zr  Zr342     1.0  0.33333  0.66667  0.62671  1.0000
  Zr  Zr343     1.0  0.37330  0.83333  0.50000  1.0000
  Zr  Zr344     1.0  0.62671  0.83333  0.50000  1.0000
  Zr  Zr345     1.0  0.33333  0.87330  0.50000  1.0000
  Zr  Zr346     1.0  0.33333  0.79337  0.50000  1.0000
  Zr  Zr347     1.0  0.33333  0.83333  0.53997  1.0000
  Zr  Zr348     1.0  0.33333  0.83333  0.46003  1.0000
  Zr  Zr349     1.0  0.53997  0.66667  0.50000  1.0000
  Zr  Zr350     1.0  0.46003  0.66667  0.50000  1.0000
  Zr  Zr351     1.0  0.50000  0.70663  0.50000  1.0000
  Zr  Zr352     1.0  0.50000  0.96005  0.50000  1.0000
  Zr  Zr353     1.0  0.50000  0.66667  0.53997  1.0000
  Zr  Zr354     1.0  0.50000  0.66667  0.46003  1.0000
  Zr  Zr355     1.0  0.53997  0.83333  0.33333  1.0000
  Zr  Zr356     1.0  0.46003  0.83333  0.33333  1.0000
  Zr  Zr357     1.0  0.50000  0.87330  0.33333  1.0000
  Zr  Zr358     1.0  0.50000  0.79337  0.33333  1.0000
  Zr  Zr359     1.0  0.50000  0.83333  0.37330  1.0000
  Zr  Zr360     1.0  0.50000  0.83333  0.62671  1.0000
  O   O1793     1.0  0.39016  0.66667  0.36510  1.0000
  O   O1794     1.0  0.60986  0.66667  0.36510  1.0000
  O   O1795     1.0  0.60986  0.66667  0.63491  1.0000
  O   O1796     1.0  0.39016  0.66667  0.63491  1.0000
  O   O1797     1.0  0.36510  0.72349  0.33333  1.0000
  O   O1798     1.0  0.36510  0.94319  0.33333  1.0000
  O   O1799     1.0  0.63491  0.94319  0.33333  1.0000
  O   O1800     1.0  0.63491  0.72349  0.33333  1.0000
  O   O1801     1.0  0.33333  0.69844  0.39016  1.0000
  O   O1802     1.0  0.33333  0.69844  0.60986  1.0000
  O   O1803     1.0  0.33333  0.96824  0.60986  1.0000
  O   O1804     1.0  0.33333  0.96824  0.39016  1.0000
  O   O1805     1.0  0.33333  0.72349  0.63491  1.0000
  O   O1806     1.0  0.33333  0.94319  0.63491  1.0000
  O   O1807     1.0  0.33333  0.94319  0.36510  1.0000
  O   O1808     1.0  0.33333  0.72349  0.36510  1.0000
  O   O1809     1.0  0.39016  0.69844  0.33333  1.0000
  O   O1810     1.0  0.60986  0.69844  0.33333  1.0000
  O   O1811     1.0  0.60986  0.96824  0.33333  1.0000
  O   O1812     1.0  0.39016  0.96824  0.33333  1.0000
  O   O1813     1.0  0.36510  0.66667  0.60986  1.0000
  O   O1814     1.0  0.36510  0.66667  0.39016  1.0000
  O   O1815     1.0  0.63491  0.66667  0.39016  1.0000
  O   O1816     1.0  0.63491  0.66667  0.60986  1.0000
  O   O1817     1.0  0.39016  0.83333  0.53177  1.0000
  O   O1818     1.0  0.60986  0.83333  0.53177  1.0000
  O   O1819     1.0  0.60986  0.83333  0.46823  1.0000
  O   O1820     1.0  0.39016  0.83333  0.46823  1.0000
  O   O1821     1.0  0.36510  0.89016  0.50000  1.0000
  O   O1822     1.0  0.36510  0.77651  0.50000  1.0000
  O   O1823     1.0  0.63491  0.77651  0.50000  1.0000
  O   O1824     1.0  0.63491  0.89016  0.50000  1.0000
  O   O1825     1.0  0.33333  0.86510  0.55683  1.0000
  O   O1826     1.0  0.33333  0.86510  0.44317  1.0000
  O   O1827     1.0  0.33333  0.80156  0.44317  1.0000
  O   O1828     1.0  0.33333  0.80156  0.55683  1.0000
  O   O1829     1.0  0.33333  0.89016  0.46823  1.0000
  O   O1830     1.0  0.33333  0.77651  0.46823  1.0000
  O   O1831     1.0  0.33333  0.77651  0.53177  1.0000
  O   O1832     1.0  0.33333  0.89016  0.53177  1.0000
  O   O1833     1.0  0.39016  0.86510  0.50000  1.0000
  O   O1834     1.0  0.60986  0.86510  0.50000  1.0000
  O   O1835     1.0  0.60986  0.80156  0.50000  1.0000
  O   O1836     1.0  0.39016  0.80156  0.50000  1.0000
  O   O1837     1.0  0.36510  0.83333  0.44317  1.0000
  O   O1838     1.0  0.36510  0.83333  0.55683  1.0000
  O   O1839     1.0  0.63491  0.83333  0.55683  1.0000
  O   O1840     1.0  0.63491  0.83333  0.44317  1.0000
  O   O1841     1.0  0.55683  0.66667  0.53177  1.0000
  O   O1842     1.0  0.44317  0.66667  0.53177  1.0000
  O   O1843     1.0  0.44317  0.66667  0.46823  1.0000
  O   O1844     1.0  0.55683  0.66667  0.46823  1.0000
  O   O1845     1.0  0.53177  0.72349  0.50000  1.0000
  O   O1846     1.0  0.53177  0.94319  0.50000  1.0000
  O   O1847     1.0  0.46823  0.94319  0.50000  1.0000
  O   O1848     1.0  0.46823  0.72349  0.50000  1.0000
  O   O1849     1.0  0.50000  0.69844  0.55683  1.0000
  O   O1850     1.0  0.50000  0.69844  0.44317  1.0000
  O   O1851     1.0  0.50000  0.96824  0.44317  1.0000
  O   O1852     1.0  0.50000  0.96824  0.55683  1.0000
  O   O1853     1.0  0.50000  0.72349  0.46823  1.0000
  O   O1854     1.0  0.50000  0.94319  0.46823  1.0000
  O   O1855     1.0  0.50000  0.94319  0.53177  1.0000
  O   O1856     1.0  0.50000  0.72349  0.53177  1.0000
  O   O1857     1.0  0.55683  0.69844  0.50000  1.0000
  O   O1858     1.0  0.44317  0.69844  0.50000  1.0000
  O   O1859     1.0  0.44317  0.96824  0.50000  1.0000
  O   O1860     1.0  0.55683  0.96824  0.50000  1.0000
  O   O1861     1.0  0.53177  0.66667  0.44317  1.0000
  O   O1862     1.0  0.53177  0.66667  0.55683  1.0000
  O   O1863     1.0  0.46823  0.66667  0.55683  1.0000
  O   O1864     1.0  0.46823  0.66667  0.44317  1.0000
  O   O1865     1.0  0.55683  0.83333  0.36510  1.0000
  O   O1866     1.0  0.44317  0.83333  0.36510  1.0000
  O   O1867     1.0  0.44317  0.83333  0.63491  1.0000
  O   O1868     1.0  0.55683  0.83333  0.63491  1.0000
  O   O1869     1.0  0.53177  0.89016  0.33333  1.0000
  O   O1870     1.0  0.53177  0.77651  0.33333  1.0000
  O   O1871     1.0  0.46823  0.77651  0.33333  1.0000
  O   O1872     1.0  0.46823  0.89016  0.33333  1.0000
  O   O1873     1.0  0.50000  0.86510  0.39016  1.0000
  O   O1874     1.0  0.50000  0.86510  0.60986  1.0000
  O   O1875     1.0  0.50000  0.80156  0.60986  1.0000
  O   O1876     1.0  0.50000  0.80156  0.39016  1.0000
  O   O1877     1.0  0.50000  0.89016  0.63491  1.0000
  O   O1878     1.0  0.50000  0.77651  0.63491  1.0000
  O   O1879     1.0  0.50000  0.77651  0.36510  1.0000
  O   O1880     1.0  0.50000  0.89016  0.36510  1.0000
  O   O1881     1.0  0.55683  0.86510  0.33333  1.0000
  O   O1882     1.0  0.44317  0.86510  0.33333  1.0000
  O   O1883     1.0  0.44317  0.80156  0.33333  1.0000
  O   O1884     1.0  0.55683  0.80156  0.33333  1.0000
  O   O1885     1.0  0.53177  0.83333  0.60986  1.0000
  O   O1886     1.0  0.53177  0.83333  0.39016  1.0000
  O   O1887     1.0  0.46823  0.83333  0.39016  1.0000
  O   O1888     1.0  0.46823  0.83333  0.60986  1.0000
  O   O1889     1.0  0.35203  0.98130  0.64797  1.0000
  O   O1890     1.0  0.64797  0.68536  0.64797  1.0000
  O   O1891     1.0  0.64797  0.98130  0.35203  1.0000
  O   O1892     1.0  0.35203  0.68536  0.35203  1.0000
  O   O1893     1.0  0.64797  0.68536  0.35203  1.0000
  O   O1894     1.0  0.35203  0.98130  0.35203  1.0000
  O   O1895     1.0  0.64797  0.98130  0.64797  1.0000
  O   O1896     1.0  0.35203  0.68536  0.64797  1.0000
  O   O1897     1.0  0.35203  0.81464  0.48130  1.0000
  O   O1898     1.0  0.64797  0.85203  0.48130  1.0000
  O   O1899     1.0  0.64797  0.81464  0.51870  1.0000
  O   O1900     1.0  0.35203  0.85203  0.51870  1.0000
  O   O1901     1.0  0.64797  0.85203  0.51870  1.0000
  O   O1902     1.0  0.35203  0.81464  0.51870  1.0000
  O   O1903     1.0  0.64797  0.81464  0.48130  1.0000
  O   O1904     1.0  0.35203  0.85203  0.48130  1.0000
  O   O1905     1.0  0.51870  0.98130  0.48130  1.0000
  O   O1906     1.0  0.48130  0.68536  0.48130  1.0000
  O   O1907     1.0  0.48130  0.98130  0.51870  1.0000
  O   O1908     1.0  0.51870  0.68536  0.51870  1.0000
  O   O1909     1.0  0.48130  0.68536  0.51870  1.0000
  O   O1910     1.0  0.51870  0.98130  0.51870  1.0000
  O   O1911     1.0  0.48130  0.98130  0.48130  1.0000
  O   O1912     1.0  0.51870  0.68536  0.48130  1.0000
  O   O1913     1.0  0.51870  0.81464  0.64797  1.0000
  O   O1914     1.0  0.48130  0.85203  0.64797  1.0000
  O   O1915     1.0  0.48130  0.81464  0.35203  1.0000
  O   O1916     1.0  0.51870  0.85203  0.35203  1.0000
  O   O1917     1.0  0.48130  0.85203  0.35203  1.0000
  O   O1918     1.0  0.51870  0.81464  0.35203  1.0000
  O   O1919     1.0  0.48130  0.81464  0.64797  1.0000
  O   O1920     1.0  0.51870  0.85203  0.64797  1.0000
  C   C2263     1.0  0.38454  0.66667  0.61548  1.0000
  C   C2264     1.0  0.61548  0.66667  0.61548  1.0000
  C   C2265     1.0  0.61548  0.66667  0.38454  1.0000
  C   C2266     1.0  0.38454  0.66667  0.38454  1.0000
  C   C2267     1.0  0.61548  0.71787  0.33333  1.0000
  C   C2268     1.0  0.61548  0.94881  0.33333  1.0000
  C   C2269     1.0  0.38454  0.94881  0.33333  1.0000
  C   C2270     1.0  0.38454  0.71787  0.33333  1.0000
  C   C2271     1.0  0.33333  0.94881  0.38454  1.0000
  C   C2272     1.0  0.33333  0.94881  0.61548  1.0000
  C   C2273     1.0  0.33333  0.71787  0.61548  1.0000
  C   C2274     1.0  0.33333  0.71787  0.38454  1.0000
  C   C2275     1.0  0.38454  0.83333  0.44881  1.0000
  C   C2276     1.0  0.61548  0.83333  0.44881  1.0000
  C   C2277     1.0  0.61548  0.83333  0.55121  1.0000
  C   C2278     1.0  0.38454  0.83333  0.55121  1.0000
  C   C2279     1.0  0.61548  0.88454  0.50000  1.0000
  C   C2280     1.0  0.61548  0.78214  0.50000  1.0000
  C   C2281     1.0  0.38454  0.78214  0.50000  1.0000
  C   C2282     1.0  0.38454  0.88454  0.50000  1.0000
  C   C2283     1.0  0.33333  0.78214  0.55121  1.0000
  C   C2284     1.0  0.33333  0.78214  0.44881  1.0000
  C   C2285     1.0  0.33333  0.88454  0.44881  1.0000
  C   C2286     1.0  0.33333  0.88454  0.55121  1.0000
  C   C2287     1.0  0.55121  0.66667  0.44881  1.0000
  C   C2288     1.0  0.44881  0.66667  0.44881  1.0000
  C   C2289     1.0  0.44881  0.66667  0.55121  1.0000
  C   C2290     1.0  0.55121  0.66667  0.55121  1.0000
  C   C2291     1.0  0.44881  0.71787  0.50000  1.0000
  C   C2292     1.0  0.44881  0.94881  0.50000  1.0000
  C   C2293     1.0  0.55121  0.94881  0.50000  1.0000
  C   C2294     1.0  0.55121  0.71787  0.50000  1.0000
  C   C2295     1.0  0.50000  0.94881  0.55121  1.0000
  C   C2296     1.0  0.50000  0.94881  0.44881  1.0000
  C   C2297     1.0  0.50000  0.71787  0.44881  1.0000
  C   C2298     1.0  0.50000  0.71787  0.55121  1.0000
  C   C2299     1.0  0.55121  0.83333  0.61548  1.0000
  C   C2300     1.0  0.44881  0.83333  0.61548  1.0000
  C   C2301     1.0  0.44881  0.83333  0.38454  1.0000
  C   C2302     1.0  0.55121  0.83333  0.38454  1.0000
  C   C2303     1.0  0.44881  0.88454  0.33333  1.0000
  C   C2304     1.0  0.44881  0.78214  0.33333  1.0000
  C   C2305     1.0  0.55121  0.78214  0.33333  1.0000
  C   C2306     1.0  0.55121  0.88454  0.33333  1.0000
  C   C2307     1.0  0.50000  0.78214  0.38454  1.0000
  C   C2308     1.0  0.50000  0.78214  0.61548  1.0000
  C   C2309     1.0  0.50000  0.88454  0.61548  1.0000
  C   C2310     1.0  0.50000  0.88454  0.38454  1.0000
  C   C2311     1.0  0.40167  0.66667  0.40167  1.0000
  C   C2312     1.0  0.40167  0.66667  0.59834  1.0000
  C   C2313     1.0  0.40167  0.93167  0.33333  1.0000
  C   C2314     1.0  0.59834  0.73501  0.33333  1.0000
  C   C2315     1.0  0.33333  0.73501  0.40167  1.0000
  C   C2316     1.0  0.33333  0.73501  0.59834  1.0000
  C   C2317     1.0  0.33333  0.93167  0.59834  1.0000
  C   C2318     1.0  0.33333  0.93167  0.40167  1.0000
  C   C2319     1.0  0.40167  0.83333  0.56834  1.0000
  C   C2320     1.0  0.59834  0.83333  0.56834  1.0000
  C   C2321     1.0  0.59834  0.83333  0.43167  1.0000
  C   C2322     1.0  0.40167  0.90167  0.50000  1.0000
  C   C2323     1.0  0.40167  0.76501  0.50000  1.0000
  C   C2324     1.0  0.59834  0.76501  0.50000  1.0000
  C   C2325     1.0  0.59834  0.90167  0.50000  1.0000
  C   C2326     1.0  0.33333  0.90167  0.56834  1.0000
  C   C2327     1.0  0.33333  0.90167  0.43167  1.0000
  C   C2328     1.0  0.33333  0.76501  0.43167  1.0000
  C   C2329     1.0  0.33333  0.76501  0.56834  1.0000
  C   C2330     1.0  0.43167  0.66667  0.56834  1.0000
  C   C2331     1.0  0.43167  0.66667  0.43167  1.0000
  C   C2332     1.0  0.56834  0.73501  0.50000  1.0000
  C   C2333     1.0  0.56834  0.93167  0.50000  1.0000
  C   C2334     1.0  0.43167  0.93167  0.50000  1.0000
  C   C2335     1.0  0.43167  0.73501  0.50000  1.0000
  C   C2336     1.0  0.50000  0.73501  0.56834  1.0000
  C   C2337     1.0  0.50000  0.73501  0.43167  1.0000
  C   C2338     1.0  0.50000  0.93167  0.43167  1.0000
  C   C2339     1.0  0.50000  0.93167  0.56834  1.0000
  C   C2340     1.0  0.56834  0.83333  0.40167  1.0000
  C   C2341     1.0  0.43167  0.83333  0.59834  1.0000
  C   C2342     1.0  0.56834  0.83333  0.59834  1.0000
  C   C2343     1.0  0.56834  0.76501  0.33333  1.0000
  C   C2344     1.0  0.43167  0.90167  0.33333  1.0000
  C   C2345     1.0  0.50000  0.90167  0.40167  1.0000
  C   C2346     1.0  0.50000  0.90167  0.59834  1.0000
  C   C2347     1.0  0.50000  0.76501  0.59834  1.0000
  C   C2348     1.0  0.50000  0.76501  0.40167  1.0000
  C   C2349     1.0  0.42250  0.66667  0.39480  1.0000
  C   C2350     1.0  0.42250  0.66667  0.60520  1.0000
  C   C2351     1.0  0.39480  0.91084  0.33333  1.0000
  C   C2352     1.0  0.60520  0.75583  0.33333  1.0000
  C   C2353     1.0  0.33333  0.72813  0.42250  1.0000
  C   C2354     1.0  0.33333  0.72813  0.57750  1.0000
  C   C2355     1.0  0.33333  0.93853  0.57750  1.0000
  C   C2356     1.0  0.33333  0.93853  0.42250  1.0000
  C   C2357     1.0  0.33333  0.75583  0.60520  1.0000
  C   C2358     1.0  0.33333  0.91084  0.60520  1.0000
  C   C2359     1.0  0.33333  0.91084  0.39480  1.0000
  C   C2360     1.0  0.33333  0.75583  0.39480  1.0000
  C   C2361     1.0  0.57750  0.72813  0.33333  1.0000
  C   C2362     1.0  0.42250  0.93853  0.33333  1.0000
  C   C2363     1.0  0.39480  0.66667  0.57750  1.0000
  C   C2364     1.0  0.39480  0.66667  0.42250  1.0000
  C   C2365     1.0  0.42250  0.83333  0.56147  1.0000
  C   C2366     1.0  0.57750  0.83333  0.56147  1.0000
  C   C2367     1.0  0.57750  0.83333  0.43853  1.0000
  C   C2368     1.0  0.39480  0.92251  0.50000  1.0000
  C   C2369     1.0  0.39480  0.74417  0.50000  1.0000
  C   C2370     1.0  0.60520  0.74417  0.50000  1.0000
  C   C2371     1.0  0.60520  0.92251  0.50000  1.0000
  C   C2372     1.0  0.33333  0.89480  0.58918  1.0000
  C   C2373     1.0  0.33333  0.89480  0.41084  1.0000
  C   C2374     1.0  0.33333  0.77187  0.41084  1.0000
  C   C2375     1.0  0.33333  0.77187  0.58918  1.0000
  C   C2376     1.0  0.33333  0.92251  0.43853  1.0000
  C   C2377     1.0  0.33333  0.74417  0.43853  1.0000
  C   C2378     1.0  0.33333  0.74417  0.56147  1.0000
  C   C2379     1.0  0.33333  0.92251  0.56147  1.0000
  C   C2380     1.0  0.42250  0.89480  0.50000  1.0000
  C   C2381     1.0  0.57750  0.89480  0.50000  1.0000
  C   C2382     1.0  0.57750  0.77187  0.50000  1.0000
  C   C2383     1.0  0.42250  0.77187  0.50000  1.0000
  C   C2384     1.0  0.39480  0.83333  0.58918  1.0000
  C   C2385     1.0  0.60520  0.83333  0.58918  1.0000
  C   C2386     1.0  0.60520  0.83333  0.41084  1.0000
  C   C2387     1.0  0.41084  0.66667  0.56147  1.0000
  C   C2388     1.0  0.41084  0.66667  0.43853  1.0000
  C   C2389     1.0  0.56147  0.75583  0.50000  1.0000
  C   C2390     1.0  0.56147  0.91084  0.50000  1.0000
  C   C2391     1.0  0.43853  0.91084  0.50000  1.0000
  C   C2392     1.0  0.43853  0.75583  0.50000  1.0000
  C   C2393     1.0  0.50000  0.72813  0.58918  1.0000
  C   C2394     1.0  0.50000  0.72813  0.41084  1.0000
  C   C2395     1.0  0.50000  0.93853  0.41084  1.0000
  C   C2396     1.0  0.50000  0.93853  0.58918  1.0000
  C   C2397     1.0  0.50000  0.75583  0.43853  1.0000
  C   C2398     1.0  0.50000  0.91084  0.43853  1.0000
  C   C2399     1.0  0.50000  0.91084  0.56147  1.0000
  C   C2400     1.0  0.50000  0.75583  0.56147  1.0000
  C   C2401     1.0  0.58918  0.72813  0.50000  1.0000
  C   C2402     1.0  0.41084  0.72813  0.50000  1.0000
  C   C2403     1.0  0.41084  0.93853  0.50000  1.0000
  C   C2404     1.0  0.58918  0.93853  0.50000  1.0000
  C   C2405     1.0  0.43853  0.66667  0.58918  1.0000
  C   C2406     1.0  0.43853  0.66667  0.41084  1.0000
  C   C2407     1.0  0.58918  0.83333  0.39480  1.0000
  C   C2408     1.0  0.41084  0.83333  0.60520  1.0000
  C   C2409     1.0  0.58918  0.83333  0.60520  1.0000
  C   C2410     1.0  0.56147  0.74417  0.33333  1.0000
  C   C2411     1.0  0.43853  0.92251  0.33333  1.0000
  C   C2412     1.0  0.50000  0.89480  0.42250  1.0000
  C   C2413     1.0  0.50000  0.89480  0.57750  1.0000
  C   C2414     1.0  0.50000  0.77187  0.57750  1.0000
  C   C2415     1.0  0.50000  0.77187  0.42250  1.0000
  C   C2416     1.0  0.50000  0.92251  0.60520  1.0000
  C   C2417     1.0  0.50000  0.74417  0.60520  1.0000
  C   C2418     1.0  0.50000  0.74417  0.39480  1.0000
  C   C2419     1.0  0.50000  0.92251  0.39480  1.0000
  C   C2420     1.0  0.41084  0.89480  0.33333  1.0000
  C   C2421     1.0  0.58918  0.77187  0.33333  1.0000
  C   C2422     1.0  0.56147  0.83333  0.57750  1.0000
  C   C2423     1.0  0.56147  0.83333  0.42250  1.0000
  C   C2424     1.0  0.43853  0.83333  0.57750  1.0000
  H   H1061     1.0  0.42634  0.66667  0.37863  1.0000
  H   H1062     1.0  0.42634  0.66667  0.62137  1.0000
  H   H1063     1.0  0.37863  0.90699  0.33333  1.0000
  H   H1064     1.0  0.62137  0.75968  0.33333  1.0000
  H   H1065     1.0  0.33333  0.71196  0.42634  1.0000
  H   H1066     1.0  0.33333  0.71196  0.57366  1.0000
  H   H1067     1.0  0.33333  0.95470  0.57366  1.0000
  H   H1068     1.0  0.33333  0.95470  0.42634  1.0000
  H   H1069     1.0  0.33333  0.75968  0.62137  1.0000
  H   H1070     1.0  0.33333  0.90699  0.62137  1.0000
  H   H1071     1.0  0.33333  0.90699  0.37863  1.0000
  H   H1072     1.0  0.33333  0.75968  0.37863  1.0000
  H   H1073     1.0  0.57366  0.71196  0.33333  1.0000
  H   H1074     1.0  0.42634  0.95470  0.33333  1.0000
  H   H1075     1.0  0.37863  0.66667  0.57366  1.0000
  H   H1076     1.0  0.37863  0.66667  0.42634  1.0000
  H   H1077     1.0  0.42634  0.83333  0.54530  1.0000
  H   H1078     1.0  0.57366  0.83333  0.54530  1.0000
  H   H1079     1.0  0.57366  0.83333  0.45470  1.0000
  H   H1080     1.0  0.37863  0.92634  0.50000  1.0000
  H   H1081     1.0  0.37863  0.74032  0.50000  1.0000
  H   H1082     1.0  0.62137  0.74032  0.50000  1.0000
  H   H1083     1.0  0.62137  0.92634  0.50000  1.0000
  H   H1084     1.0  0.33333  0.87863  0.59301  1.0000
  H   H1085     1.0  0.33333  0.87863  0.40699  1.0000
  H   H1086     1.0  0.33333  0.78804  0.40699  1.0000
  H   H1087     1.0  0.33333  0.78804  0.59301  1.0000
  H   H1088     1.0  0.33333  0.92634  0.45470  1.0000
  H   H1089     1.0  0.33333  0.74032  0.45470  1.0000
  H   H1090     1.0  0.33333  0.74032  0.54530  1.0000
  H   H1091     1.0  0.33333  0.92634  0.54530  1.0000
  H   H1092     1.0  0.42634  0.87863  0.50000  1.0000
  H   H1093     1.0  0.57366  0.87863  0.50000  1.0000
  H   H1094     1.0  0.57366  0.78804  0.50000  1.0000
  H   H1095     1.0  0.42634  0.78804  0.50000  1.0000
  H   H1096     1.0  0.37863  0.83333  0.59301  1.0000
  H   H1097     1.0  0.62137  0.83333  0.59301  1.0000
  H   H1098     1.0  0.62137  0.83333  0.40699  1.0000
  H   H1099     1.0  0.40699  0.66667  0.54530  1.0000
  H   H1100     1.0  0.40699  0.66667  0.45470  1.0000
  H   H1101     1.0  0.54530  0.75968  0.50000  1.0000
  H   H1102     1.0  0.54530  0.90699  0.50000  1.0000
  H   H1103     1.0  0.45470  0.90699  0.50000  1.0000
  H   H1104     1.0  0.45470  0.75968  0.50000  1.0000
  H   H1105     1.0  0.50000  0.71196  0.59301  1.0000
  H   H1106     1.0  0.50000  0.71196  0.40699  1.0000
  H   H1107     1.0  0.50000  0.95470  0.40699  1.0000
  H   H1108     1.0  0.50000  0.95470  0.59301  1.0000
  H   H1109     1.0  0.50000  0.75968  0.45470  1.0000
  H   H1110     1.0  0.50000  0.90699  0.45470  1.0000
  H   H1111     1.0  0.50000  0.90699  0.54530  1.0000
  H   H1112     1.0  0.50000  0.75968  0.54530  1.0000
  H   H1113     1.0  0.59301  0.71196  0.50000  1.0000
  H   H1114     1.0  0.40699  0.71196  0.50000  1.0000
  H   H1115     1.0  0.40699  0.95470  0.50000  1.0000
  H   H1116     1.0  0.59301  0.95470  0.50000  1.0000
  H   H1117     1.0  0.45470  0.66667  0.59301  1.0000
  H   H1118     1.0  0.45470  0.66667  0.40699  1.0000
  H   H1119     1.0  0.59301  0.83333  0.37863  1.0000
  H   H1120     1.0  0.40699  0.83333  0.62137  1.0000
  H   H1121     1.0  0.59301  0.83333  0.62137  1.0000
  H   H1122     1.0  0.54530  0.74032  0.33333  1.0000
  H   H1123     1.0  0.45470  0.92634  0.33333  1.0000
  H   H1124     1.0  0.50000  0.87863  0.42634  1.0000
  H   H1125     1.0  0.50000  0.87863  0.57366  1.0000
  H   H1126     1.0  0.50000  0.78804  0.57366  1.0000
  H   H1127     1.0  0.50000  0.78804  0.42634  1.0000
  H   H1128     1.0  0.50000  0.92634  0.62137  1.0000
  H   H1129     1.0  0.50000  0.74032  0.62137  1.0000
  H   H1130     1.0  0.50000  0.74032  0.37863  1.0000
  H   H1131     1.0  0.50000  0.92634  0.37863  1.0000
  H   H1132     1.0  0.40699  0.87863  0.33333  1.0000
  H   H1133     1.0  0.59301  0.78804  0.33333  1.0000
  H   H1134     1.0  0.54530  0.83333  0.57366  1.0000
  H   H1135     1.0  0.54530  0.83333  0.42634  1.0000
  H   H1136     1.0  0.45470  0.83333  0.57366  1.0000
  Zr  Zr361     1.0  0.70663  0.00000  0.33333  1.0000
  Zr  Zr362     1.0  0.96005  0.00000  0.33333  1.0000
  Zr  Zr363     1.0  0.66667  0.03997  0.33333  1.0000
  Zr  Zr364     1.0  0.66667  0.29338  0.33333  1.0000
  Zr  Zr365     1.0  0.66667  0.00000  0.37330  1.0000
  Zr  Zr366     1.0  0.66667  0.00000  0.62671  1.0000
  Zr  Zr367     1.0  0.70663  0.16667  0.50000  1.0000
  Zr  Zr368     1.0  0.96005  0.16667  0.50000  1.0000
  Zr  Zr369     1.0  0.66667  0.20663  0.50000  1.0000
  Zr  Zr370     1.0  0.66667  0.12670  0.50000  1.0000
  Zr  Zr371     1.0  0.66667  0.16667  0.53997  1.0000
  Zr  Zr372     1.0  0.66667  0.16667  0.46003  1.0000
  Zr  Zr373     1.0  0.87330  0.00000  0.50000  1.0000
  Zr  Zr374     1.0  0.79337  0.00000  0.50000  1.0000
  Zr  Zr375     1.0  0.83333  0.03997  0.50000  1.0000
  Zr  Zr376     1.0  0.83333  0.29338  0.50000  1.0000
  Zr  Zr377     1.0  0.83333  0.00000  0.53997  1.0000
  Zr  Zr378     1.0  0.83333  0.00000  0.46003  1.0000
  Zr  Zr379     1.0  0.87330  0.16667  0.33333  1.0000
  Zr  Zr380     1.0  0.79337  0.16667  0.33333  1.0000
  Zr  Zr381     1.0  0.83333  0.20663  0.33333  1.0000
  Zr  Zr382     1.0  0.83333  0.12670  0.33333  1.0000
  Zr  Zr383     1.0  0.83333  0.16667  0.37330  1.0000
  Zr  Zr384     1.0  0.83333  0.16667  0.62671  1.0000
  O   O1921     1.0  0.72349  0.00000  0.36510  1.0000
  O   O1922     1.0  0.94319  0.00000  0.36510  1.0000
  O   O1923     1.0  0.94319  0.00000  0.63491  1.0000
  O   O1924     1.0  0.72349  0.00000  0.63491  1.0000
  O   O1925     1.0  0.69844  0.05683  0.33333  1.0000
  O   O1926     1.0  0.69844  0.27652  0.33333  1.0000
  O   O1927     1.0  0.96824  0.27652  0.33333  1.0000
  O   O1928     1.0  0.96824  0.05683  0.33333  1.0000
  O   O1929     1.0  0.66667  0.03177  0.39016  1.0000
  O   O1930     1.0  0.66667  0.03177  0.60986  1.0000
  O   O1931     1.0  0.66667  0.30158  0.60986  1.0000
  O   O1932     1.0  0.66667  0.30158  0.39016  1.0000
  O   O1933     1.0  0.66667  0.05683  0.63491  1.0000
  O   O1934     1.0  0.66667  0.27652  0.63491  1.0000
  O   O1935     1.0  0.66667  0.27652  0.36510  1.0000
  O   O1936     1.0  0.66667  0.05683  0.36510  1.0000
  O   O1937     1.0  0.72349  0.03177  0.33333  1.0000
  O   O1938     1.0  0.94319  0.03177  0.33333  1.0000
  O   O1939     1.0  0.94319  0.30158  0.33333  1.0000
  O   O1940     1.0  0.72349  0.30158  0.33333  1.0000
  O   O1941     1.0  0.69844  0.00000  0.60986  1.0000
  O   O1942     1.0  0.69844  0.00000  0.39016  1.0000
  O   O1943     1.0  0.96824  0.00000  0.39016  1.0000
  O   O1944     1.0  0.96824  0.00000  0.60986  1.0000
  O   O1945     1.0  0.72349  0.16667  0.53177  1.0000
  O   O1946     1.0  0.94319  0.16667  0.53177  1.0000
  O   O1947     1.0  0.94319  0.16667  0.46823  1.0000
  O   O1948     1.0  0.72349  0.16667  0.46823  1.0000
  O   O1949     1.0  0.69844  0.22349  0.50000  1.0000
  O   O1950     1.0  0.69844  0.10984  0.50000  1.0000
  O   O1951     1.0  0.96824  0.10984  0.50000  1.0000
  O   O1952     1.0  0.96824  0.22349  0.50000  1.0000
  O   O1953     1.0  0.66667  0.19844  0.55683  1.0000
  O   O1954     1.0  0.66667  0.19844  0.44317  1.0000
  O   O1955     1.0  0.66667  0.13490  0.44317  1.0000
  O   O1956     1.0  0.66667  0.13490  0.55683  1.0000
  O   O1957     1.0  0.66667  0.22349  0.46823  1.0000
  O   O1958     1.0  0.66667  0.10984  0.46823  1.0000
  O   O1959     1.0  0.66667  0.10984  0.53177  1.0000
  O   O1960     1.0  0.66667  0.22349  0.53177  1.0000
  O   O1961     1.0  0.72349  0.19844  0.50000  1.0000
  O   O1962     1.0  0.94319  0.19844  0.50000  1.0000
  O   O1963     1.0  0.94319  0.13490  0.50000  1.0000
  O   O1964     1.0  0.72349  0.13490  0.50000  1.0000
  O   O1965     1.0  0.69844  0.16667  0.44317  1.0000
  O   O1966     1.0  0.69844  0.16667  0.55683  1.0000
  O   O1967     1.0  0.96824  0.16667  0.55683  1.0000
  O   O1968     1.0  0.96824  0.16667  0.44317  1.0000
  O   O1969     1.0  0.89016  0.00000  0.53177  1.0000
  O   O1970     1.0  0.77651  0.00000  0.53177  1.0000
  O   O1971     1.0  0.77651  0.00000  0.46823  1.0000
  O   O1972     1.0  0.89016  0.00000  0.46823  1.0000
  O   O1973     1.0  0.86510  0.05683  0.50000  1.0000
  O   O1974     1.0  0.86510  0.27652  0.50000  1.0000
  O   O1975     1.0  0.80156  0.27652  0.50000  1.0000
  O   O1976     1.0  0.80156  0.05683  0.50000  1.0000
  O   O1977     1.0  0.83333  0.03177  0.55683  1.0000
  O   O1978     1.0  0.83333  0.03177  0.44317  1.0000
  O   O1979     1.0  0.83333  0.30158  0.44317  1.0000
  O   O1980     1.0  0.83333  0.30158  0.55683  1.0000
  O   O1981     1.0  0.83333  0.05683  0.46823  1.0000
  O   O1982     1.0  0.83333  0.27652  0.46823  1.0000
  O   O1983     1.0  0.83333  0.27652  0.53177  1.0000
  O   O1984     1.0  0.83333  0.05683  0.53177  1.0000
  O   O1985     1.0  0.89016  0.03177  0.50000  1.0000
  O   O1986     1.0  0.77651  0.03177  0.50000  1.0000
  O   O1987     1.0  0.77651  0.30158  0.50000  1.0000
  O   O1988     1.0  0.89016  0.30158  0.50000  1.0000
  O   O1989     1.0  0.86510  0.00000  0.44317  1.0000
  O   O1990     1.0  0.86510  0.00000  0.55683  1.0000
  O   O1991     1.0  0.80156  0.00000  0.55683  1.0000
  O   O1992     1.0  0.80156  0.00000  0.44317  1.0000
  O   O1993     1.0  0.89016  0.16667  0.36510  1.0000
  O   O1994     1.0  0.77651  0.16667  0.36510  1.0000
  O   O1995     1.0  0.77651  0.16667  0.63491  1.0000
  O   O1996     1.0  0.89016  0.16667  0.63491  1.0000
  O   O1997     1.0  0.86510  0.22349  0.33333  1.0000
  O   O1998     1.0  0.86510  0.10984  0.33333  1.0000
  O   O1999     1.0  0.80156  0.10984  0.33333  1.0000
  O   O2000     1.0  0.80156  0.22349  0.33333  1.0000
  O   O2001     1.0  0.83333  0.19844  0.39016  1.0000
  O   O2002     1.0  0.83333  0.19844  0.60986  1.0000
  O   O2003     1.0  0.83333  0.13490  0.60986  1.0000
  O   O2004     1.0  0.83333  0.13490  0.39016  1.0000
  O   O2005     1.0  0.83333  0.22349  0.63491  1.0000
  O   O2006     1.0  0.83333  0.10984  0.63491  1.0000
  O   O2007     1.0  0.83333  0.10984  0.36510  1.0000
  O   O2008     1.0  0.83333  0.22349  0.36510  1.0000
  O   O2009     1.0  0.89016  0.19844  0.33333  1.0000
  O   O2010     1.0  0.77651  0.19844  0.33333  1.0000
  O   O2011     1.0  0.77651  0.13490  0.33333  1.0000
  O   O2012     1.0  0.89016  0.13490  0.33333  1.0000
  O   O2013     1.0  0.86510  0.16667  0.60986  1.0000
  O   O2014     1.0  0.86510  0.16667  0.39016  1.0000
  O   O2015     1.0  0.80156  0.16667  0.39016  1.0000
  O   O2016     1.0  0.80156  0.16667  0.60986  1.0000
  O   O2017     1.0  0.68536  0.31464  0.64797  1.0000
  O   O2018     1.0  0.98130  0.01870  0.64797  1.0000
  O   O2019     1.0  0.98130  0.31464  0.35203  1.0000
  O   O2020     1.0  0.68536  0.01870  0.35203  1.0000
  O   O2021     1.0  0.98130  0.01870  0.35203  1.0000
  O   O2022     1.0  0.68536  0.31464  0.35203  1.0000
  O   O2023     1.0  0.98130  0.31464  0.64797  1.0000
  O   O2024     1.0  0.68536  0.01870  0.64797  1.0000
  O   O2025     1.0  0.68536  0.14797  0.48130  1.0000
  O   O2026     1.0  0.98130  0.18536  0.48130  1.0000
  O   O2027     1.0  0.98130  0.14797  0.51870  1.0000
  O   O2028     1.0  0.68536  0.18536  0.51870  1.0000
  O   O2029     1.0  0.98130  0.18536  0.51870  1.0000
  O   O2030     1.0  0.68536  0.14797  0.51870  1.0000
  O   O2031     1.0  0.98130  0.14797  0.48130  1.0000
  O   O2032     1.0  0.68536  0.18536  0.48130  1.0000
  O   O2033     1.0  0.85203  0.31464  0.48130  1.0000
  O   O2034     1.0  0.81464  0.01870  0.48130  1.0000
  O   O2035     1.0  0.81464  0.31464  0.51870  1.0000
  O   O2036     1.0  0.85203  0.01870  0.51870  1.0000
  O   O2037     1.0  0.81464  0.01870  0.51870  1.0000
  O   O2038     1.0  0.85203  0.31464  0.51870  1.0000
  O   O2039     1.0  0.81464  0.31464  0.48130  1.0000
  O   O2040     1.0  0.85203  0.01870  0.48130  1.0000
  O   O2041     1.0  0.85203  0.14797  0.64797  1.0000
  O   O2042     1.0  0.81464  0.18536  0.64797  1.0000
  O   O2043     1.0  0.81464  0.14797  0.35203  1.0000
  O   O2044     1.0  0.85203  0.18536  0.35203  1.0000
  O   O2045     1.0  0.81464  0.18536  0.35203  1.0000
  O   O2046     1.0  0.85203  0.14797  0.35203  1.0000
  O   O2047     1.0  0.81464  0.14797  0.64797  1.0000
  O   O2048     1.0  0.85203  0.18536  0.64797  1.0000
  C   C2425     1.0  0.71787  0.00000  0.61548  1.0000
  C   C2426     1.0  0.94881  0.00000  0.61548  1.0000
  C   C2427     1.0  0.94881  0.00000  0.38454  1.0000
  C   C2428     1.0  0.71787  0.00000  0.38454  1.0000
  C   C2429     1.0  0.94881  0.05121  0.33333  1.0000
  C   C2430     1.0  0.94881  0.28214  0.33333  1.0000
  C   C2431     1.0  0.71787  0.28214  0.33333  1.0000
  C   C2432     1.0  0.71787  0.05121  0.33333  1.0000
  C   C2433     1.0  0.66667  0.28214  0.38454  1.0000
  C   C2434     1.0  0.66667  0.28214  0.61548  1.0000
  C   C2435     1.0  0.66667  0.05121  0.61548  1.0000
  C   C2436     1.0  0.66667  0.05121  0.38454  1.0000
  C   C2437     1.0  0.71787  0.16667  0.44881  1.0000
  C   C2438     1.0  0.94881  0.16667  0.44881  1.0000
  C   C2439     1.0  0.94881  0.16667  0.55121  1.0000
  C   C2440     1.0  0.71787  0.16667  0.55121  1.0000
  C   C2441     1.0  0.94881  0.21787  0.50000  1.0000
  C   C2442     1.0  0.94881  0.11548  0.50000  1.0000
  C   C2443     1.0  0.71787  0.11548  0.50000  1.0000
  C   C2444     1.0  0.71787  0.21787  0.50000  1.0000
  C   C2445     1.0  0.66667  0.11548  0.55121  1.0000
  C   C2446     1.0  0.66667  0.11548  0.44881  1.0000
  C   C2447     1.0  0.66667  0.21787  0.44881  1.0000
  C   C2448     1.0  0.66667  0.21787  0.55121  1.0000
  C   C2449     1.0  0.88454  0.00000  0.44881  1.0000
  C   C2450     1.0  0.78214  0.00000  0.44881  1.0000
  C   C2451     1.0  0.78214  0.00000  0.55121  1.0000
  C   C2452     1.0  0.88454  0.00000  0.55121  1.0000
  C   C2453     1.0  0.78214  0.05121  0.50000  1.0000
  C   C2454     1.0  0.78214  0.28214  0.50000  1.0000
  C   C2455     1.0  0.88454  0.28214  0.50000  1.0000
  C   C2456     1.0  0.88454  0.05121  0.50000  1.0000
  C   C2457     1.0  0.83333  0.28214  0.55121  1.0000
  C   C2458     1.0  0.83333  0.28214  0.44881  1.0000
  C   C2459     1.0  0.83333  0.05121  0.44881  1.0000
  C   C2460     1.0  0.83333  0.05121  0.55121  1.0000
  C   C2461     1.0  0.88454  0.16667  0.61548  1.0000
  C   C2462     1.0  0.78214  0.16667  0.61548  1.0000
  C   C2463     1.0  0.78214  0.16667  0.38454  1.0000
  C   C2464     1.0  0.88454  0.16667  0.38454  1.0000
  C   C2465     1.0  0.78214  0.21787  0.33333  1.0000
  C   C2466     1.0  0.78214  0.11548  0.33333  1.0000
  C   C2467     1.0  0.88454  0.11548  0.33333  1.0000
  C   C2468     1.0  0.88454  0.21787  0.33333  1.0000
  C   C2469     1.0  0.83333  0.11548  0.38454  1.0000
  C   C2470     1.0  0.83333  0.11548  0.61548  1.0000
  C   C2471     1.0  0.83333  0.21787  0.61548  1.0000
  C   C2472     1.0  0.83333  0.21787  0.38454  1.0000
  C   C2473     1.0  0.73501  0.00000  0.40167  1.0000
  C   C2474     1.0  0.93167  0.00000  0.40167  1.0000
  C   C2475     1.0  0.93167  0.00000  0.59834  1.0000
  C   C2476     1.0  0.73501  0.00000  0.59834  1.0000
  C   C2477     1.0  0.73501  0.26501  0.33333  1.0000
  C   C2478     1.0  0.93167  0.26501  0.33333  1.0000
  C   C2479     1.0  0.93167  0.06834  0.33333  1.0000
  C   C2480     1.0  0.66667  0.06834  0.40167  1.0000
  C   C2481     1.0  0.66667  0.06834  0.59834  1.0000
  C   C2482     1.0  0.66667  0.26501  0.59834  1.0000
  C   C2483     1.0  0.66667  0.26501  0.40167  1.0000
  C   C2484     1.0  0.73501  0.16667  0.56834  1.0000
  C   C2485     1.0  0.93167  0.16667  0.56834  1.0000
  C   C2486     1.0  0.93167  0.16667  0.43167  1.0000
  C   C2487     1.0  0.73501  0.16667  0.43167  1.0000
  C   C2488     1.0  0.73501  0.09834  0.50000  1.0000
  C   C2489     1.0  0.93167  0.09834  0.50000  1.0000
  C   C2490     1.0  0.93167  0.23501  0.50000  1.0000
  C   C2491     1.0  0.66667  0.23501  0.56834  1.0000
  C   C2492     1.0  0.66667  0.23501  0.43167  1.0000
  C   C2493     1.0  0.66667  0.09834  0.43167  1.0000
  C   C2494     1.0  0.66667  0.09834  0.56834  1.0000
  C   C2495     1.0  0.90167  0.00000  0.56834  1.0000
  C   C2496     1.0  0.76501  0.00000  0.56834  1.0000
  C   C2497     1.0  0.76501  0.00000  0.43167  1.0000
  C   C2498     1.0  0.90167  0.00000  0.43167  1.0000
  C   C2499     1.0  0.90167  0.06834  0.50000  1.0000
  C   C2500     1.0  0.90167  0.26501  0.50000  1.0000
  C   C2501     1.0  0.76501  0.06834  0.50000  1.0000
  C   C2502     1.0  0.83333  0.06834  0.56834  1.0000
  C   C2503     1.0  0.83333  0.26501  0.43167  1.0000
  C   C2504     1.0  0.83333  0.26501  0.56834  1.0000
  C   C2505     1.0  0.90167  0.16667  0.40167  1.0000
  C   C2506     1.0  0.76501  0.16667  0.40167  1.0000
  C   C2507     1.0  0.76501  0.16667  0.59834  1.0000
  C   C2508     1.0  0.90167  0.16667  0.59834  1.0000
  C   C2509     1.0  0.90167  0.23501  0.33333  1.0000
  C   C2510     1.0  0.90167  0.09834  0.33333  1.0000
  C   C2511     1.0  0.76501  0.23501  0.33333  1.0000
  C   C2512     1.0  0.83333  0.23501  0.40167  1.0000
  C   C2513     1.0  0.83333  0.23501  0.59834  1.0000
  C   C2514     1.0  0.83333  0.09834  0.59834  1.0000
  C   C2515     1.0  0.75583  0.00000  0.39480  1.0000
  C   C2516     1.0  0.91084  0.00000  0.39480  1.0000
  C   C2517     1.0  0.91084  0.00000  0.60520  1.0000
  C   C2518     1.0  0.75583  0.00000  0.60520  1.0000
  C   C2519     1.0  0.72813  0.24417  0.33333  1.0000
  C   C2520     1.0  0.93853  0.24417  0.33333  1.0000
  C   C2521     1.0  0.93853  0.08916  0.33333  1.0000
  C   C2522     1.0  0.66667  0.06147  0.42250  1.0000
  C   C2523     1.0  0.66667  0.06147  0.57750  1.0000
  C   C2524     1.0  0.66667  0.27187  0.57750  1.0000
  C   C2525     1.0  0.66667  0.27187  0.42250  1.0000
  C   C2526     1.0  0.66667  0.08916  0.60520  1.0000
  C   C2527     1.0  0.66667  0.24417  0.60520  1.0000
  C   C2528     1.0  0.66667  0.24417  0.39480  1.0000
  C   C2529     1.0  0.66667  0.08916  0.39480  1.0000
  C   C2530     1.0  0.91084  0.06147  0.33333  1.0000
  C   C2531     1.0  0.91084  0.27187  0.33333  1.0000
  C   C2532     1.0  0.75583  0.27187  0.33333  1.0000
  C   C2533     1.0  0.72813  0.00000  0.57750  1.0000
  C   C2534     1.0  0.72813  0.00000  0.42250  1.0000
  C   C2535     1.0  0.93853  0.00000  0.42250  1.0000
  C   C2536     1.0  0.93853  0.00000  0.57750  1.0000
  C   C2537     1.0  0.75583  0.16667  0.56147  1.0000
  C   C2538     1.0  0.91084  0.16667  0.56147  1.0000
  C   C2539     1.0  0.91084  0.16667  0.43853  1.0000
  C   C2540     1.0  0.75583  0.16667  0.43853  1.0000
  C   C2541     1.0  0.72813  0.07750  0.50000  1.0000
  C   C2542     1.0  0.93853  0.07750  0.50000  1.0000
  C   C2543     1.0  0.93853  0.25585  0.50000  1.0000
  C   C2544     1.0  0.66667  0.22813  0.58918  1.0000
  C   C2545     1.0  0.66667  0.22813  0.41084  1.0000
  C   C2546     1.0  0.66667  0.10520  0.41084  1.0000
  C   C2547     1.0  0.66667  0.10520  0.58918  1.0000
  C   C2548     1.0  0.66667  0.25585  0.43853  1.0000
  C   C2549     1.0  0.66667  0.07750  0.43853  1.0000
  C   C2550     1.0  0.66667  0.07750  0.56147  1.0000
  C   C2551     1.0  0.66667  0.25585  0.56147  1.0000
  C   C2552     1.0  0.91084  0.22813  0.50000  1.0000
  C   C2553     1.0  0.91084  0.10520  0.50000  1.0000
  C   C2554     1.0  0.75583  0.10520  0.50000  1.0000
  C   C2555     1.0  0.72813  0.16667  0.41084  1.0000
  C   C2556     1.0  0.72813  0.16667  0.58918  1.0000
  C   C2557     1.0  0.93853  0.16667  0.58918  1.0000
  C   C2558     1.0  0.93853  0.16667  0.41084  1.0000
  C   C2559     1.0  0.92251  0.00000  0.56147  1.0000
  C   C2560     1.0  0.74417  0.00000  0.56147  1.0000
  C   C2561     1.0  0.74417  0.00000  0.43853  1.0000
  C   C2562     1.0  0.92251  0.00000  0.43853  1.0000
  C   C2563     1.0  0.89480  0.08916  0.50000  1.0000
  C   C2564     1.0  0.89480  0.24417  0.50000  1.0000
  C   C2565     1.0  0.77187  0.08916  0.50000  1.0000
  C   C2566     1.0  0.83333  0.06147  0.58918  1.0000
  C   C2567     1.0  0.83333  0.27187  0.41084  1.0000
  C   C2568     1.0  0.83333  0.27187  0.58918  1.0000
  C   C2569     1.0  0.83333  0.24417  0.43853  1.0000
  C   C2570     1.0  0.83333  0.24417  0.56147  1.0000
  C   C2571     1.0  0.83333  0.08916  0.56147  1.0000
  C   C2572     1.0  0.92251  0.06147  0.50000  1.0000
  C   C2573     1.0  0.74417  0.06147  0.50000  1.0000
  C   C2574     1.0  0.92251  0.27187  0.50000  1.0000
  C   C2575     1.0  0.89480  0.00000  0.41084  1.0000
  C   C2576     1.0  0.89480  0.00000  0.58918  1.0000
  C   C2577     1.0  0.77187  0.00000  0.58918  1.0000
  C   C2578     1.0  0.77187  0.00000  0.41084  1.0000
  C   C2579     1.0  0.92251  0.16667  0.39480  1.0000
  C   C2580     1.0  0.74417  0.16667  0.39480  1.0000
  C   C2581     1.0  0.74417  0.16667  0.60520  1.0000
  C   C2582     1.0  0.92251  0.16667  0.60520  1.0000
  C   C2583     1.0  0.89480  0.25585  0.33333  1.0000
  C   C2584     1.0  0.89480  0.07750  0.33333  1.0000
  C   C2585     1.0  0.77187  0.25585  0.33333  1.0000
  C   C2586     1.0  0.83333  0.22813  0.42250  1.0000
  C   C2587     1.0  0.83333  0.22813  0.57750  1.0000
  C   C2588     1.0  0.83333  0.10520  0.57750  1.0000
  C   C2589     1.0  0.83333  0.25585  0.60520  1.0000
  C   C2590     1.0  0.83333  0.07750  0.60520  1.0000
  C   C2591     1.0  0.83333  0.25585  0.39480  1.0000
  C   C2592     1.0  0.92251  0.22813  0.33333  1.0000
  C   C2593     1.0  0.74417  0.22813  0.33333  1.0000
  C   C2594     1.0  0.92251  0.10520  0.33333  1.0000
  C   C2595     1.0  0.89480  0.16667  0.57750  1.0000
  C   C2596     1.0  0.89480  0.16667  0.42250  1.0000
  C   C2597     1.0  0.77187  0.16667  0.42250  1.0000
  C   C2598     1.0  0.77187  0.16667  0.57750  1.0000
  H   H1137     1.0  0.75968  0.00000  0.37863  1.0000
  H   H1138     1.0  0.90699  0.00000  0.37863  1.0000
  H   H1139     1.0  0.90699  0.00000  0.62137  1.0000
  H   H1140     1.0  0.75968  0.00000  0.62137  1.0000
  H   H1141     1.0  0.71196  0.24032  0.33333  1.0000
  H   H1142     1.0  0.95470  0.24032  0.33333  1.0000
  H   H1143     1.0  0.95470  0.09301  0.33333  1.0000
  H   H1144     1.0  0.66667  0.04530  0.42634  1.0000
  H   H1145     1.0  0.66667  0.04530  0.57366  1.0000
  H   H1146     1.0  0.66667  0.28804  0.57366  1.0000
  H   H1147     1.0  0.66667  0.28804  0.42634  1.0000
  H   H1148     1.0  0.66667  0.09301  0.62137  1.0000
  H   H1149     1.0  0.66667  0.24032  0.62137  1.0000
  H   H1150     1.0  0.66667  0.24032  0.37863  1.0000
  H   H1151     1.0  0.66667  0.09301  0.37863  1.0000
  H   H1152     1.0  0.90699  0.04530  0.33333  1.0000
  H   H1153     1.0  0.90699  0.28804  0.33333  1.0000
  H   H1154     1.0  0.75968  0.28804  0.33333  1.0000
  H   H1155     1.0  0.71196  0.00000  0.57366  1.0000
  H   H1156     1.0  0.71196  0.00000  0.42634  1.0000
  H   H1157     1.0  0.95470  0.00000  0.42634  1.0000
  H   H1158     1.0  0.95470  0.00000  0.57366  1.0000
  H   H1159     1.0  0.75968  0.16667  0.54530  1.0000
  H   H1160     1.0  0.90699  0.16667  0.54530  1.0000
  H   H1161     1.0  0.90699  0.16667  0.45470  1.0000
  H   H1162     1.0  0.75968  0.16667  0.45470  1.0000
  H   H1163     1.0  0.71196  0.07366  0.50000  1.0000
  H   H1164     1.0  0.95470  0.07366  0.50000  1.0000
  H   H1165     1.0  0.95470  0.25968  0.50000  1.0000
  H   H1166     1.0  0.66667  0.21196  0.59301  1.0000
  H   H1167     1.0  0.66667  0.21196  0.40699  1.0000
  H   H1168     1.0  0.66667  0.12137  0.40699  1.0000
  H   H1169     1.0  0.66667  0.12137  0.59301  1.0000
  H   H1170     1.0  0.66667  0.25968  0.45470  1.0000
  H   H1171     1.0  0.66667  0.07366  0.45470  1.0000
  H   H1172     1.0  0.66667  0.07366  0.54530  1.0000
  H   H1173     1.0  0.66667  0.25968  0.54530  1.0000
  H   H1174     1.0  0.90699  0.21196  0.50000  1.0000
  H   H1175     1.0  0.90699  0.12137  0.50000  1.0000
  H   H1176     1.0  0.75968  0.12137  0.50000  1.0000
  H   H1177     1.0  0.71196  0.16667  0.40699  1.0000
  H   H1178     1.0  0.71196  0.16667  0.59301  1.0000
  H   H1179     1.0  0.95470  0.16667  0.59301  1.0000
  H   H1180     1.0  0.95470  0.16667  0.40699  1.0000
  H   H1181     1.0  0.92634  0.00000  0.54530  1.0000
  H   H1182     1.0  0.74032  0.00000  0.54530  1.0000
  H   H1183     1.0  0.74032  0.00000  0.45470  1.0000
  H   H1184     1.0  0.92634  0.00000  0.45470  1.0000
  H   H1185     1.0  0.87863  0.09301  0.50000  1.0000
  H   H1186     1.0  0.87863  0.24032  0.50000  1.0000
  H   H1187     1.0  0.78804  0.09301  0.50000  1.0000
  H   H1188     1.0  0.83333  0.04530  0.59301  1.0000
  H   H1189     1.0  0.83333  0.28804  0.40699  1.0000
  H   H1190     1.0  0.83333  0.28804  0.59301  1.0000
  H   H1191     1.0  0.83333  0.24032  0.45470  1.0000
  H   H1192     1.0  0.83333  0.24032  0.54530  1.0000
  H   H1193     1.0  0.83333  0.09301  0.54530  1.0000
  H   H1194     1.0  0.92634  0.04530  0.50000  1.0000
  H   H1195     1.0  0.74032  0.04530  0.50000  1.0000
  H   H1196     1.0  0.92634  0.28804  0.50000  1.0000
  H   H1197     1.0  0.87863  0.00000  0.40699  1.0000
  H   H1198     1.0  0.87863  0.00000  0.59301  1.0000
  H   H1199     1.0  0.78804  0.00000  0.59301  1.0000
  H   H1200     1.0  0.78804  0.00000  0.40699  1.0000
  H   H1201     1.0  0.92634  0.16667  0.37863  1.0000
  H   H1202     1.0  0.74032  0.16667  0.37863  1.0000
  H   H1203     1.0  0.74032  0.16667  0.62137  1.0000
  H   H1204     1.0  0.92634  0.16667  0.62137  1.0000
  H   H1205     1.0  0.87863  0.25968  0.33333  1.0000
  H   H1206     1.0  0.87863  0.07366  0.33333  1.0000
  H   H1207     1.0  0.78804  0.25968  0.33333  1.0000
  H   H1208     1.0  0.83333  0.21196  0.42634  1.0000
  H   H1209     1.0  0.83333  0.21196  0.57366  1.0000
  H   H1210     1.0  0.83333  0.12137  0.57366  1.0000
  H   H1211     1.0  0.83333  0.25968  0.62137  1.0000
  H   H1212     1.0  0.83333  0.07366  0.62137  1.0000
  H   H1213     1.0  0.83333  0.25968  0.37863  1.0000
  H   H1214     1.0  0.92634  0.21196  0.33333  1.0000
  H   H1215     1.0  0.74032  0.21196  0.33333  1.0000
  H   H1216     1.0  0.92634  0.12137  0.33333  1.0000
  H   H1217     1.0  0.87863  0.16667  0.57366  1.0000
  H   H1218     1.0  0.87863  0.16667  0.42634  1.0000
  H   H1219     1.0  0.78804  0.16667  0.42634  1.0000
  H   H1220     1.0  0.78804  0.16667  0.57366  1.0000
  Zr  Zr385     1.0  0.70663  0.33333  0.33333  1.0000
  Zr  Zr386     1.0  0.96005  0.33333  0.33333  1.0000
  Zr  Zr387     1.0  0.66667  0.37330  0.33333  1.0000
  Zr  Zr388     1.0  0.66667  0.62671  0.33333  1.0000
  Zr  Zr389     1.0  0.66667  0.33333  0.37330  1.0000
  Zr  Zr390     1.0  0.66667  0.33333  0.62671  1.0000
  Zr  Zr391     1.0  0.70663  0.50000  0.50000  1.0000
  Zr  Zr392     1.0  0.96005  0.50000  0.50000  1.0000
  Zr  Zr393     1.0  0.66667  0.53997  0.50000  1.0000
  Zr  Zr394     1.0  0.66667  0.46003  0.50000  1.0000
  Zr  Zr395     1.0  0.66667  0.50000  0.53997  1.0000
  Zr  Zr396     1.0  0.66667  0.50000  0.46003  1.0000
  Zr  Zr397     1.0  0.87330  0.33333  0.50000  1.0000
  Zr  Zr398     1.0  0.79337  0.33333  0.50000  1.0000
  Zr  Zr399     1.0  0.83333  0.37330  0.50000  1.0000
  Zr  Zr400     1.0  0.83333  0.62671  0.50000  1.0000
  Zr  Zr401     1.0  0.83333  0.33333  0.53997  1.0000
  Zr  Zr402     1.0  0.83333  0.33333  0.46003  1.0000
  Zr  Zr403     1.0  0.87330  0.50000  0.33333  1.0000
  Zr  Zr404     1.0  0.79337  0.50000  0.33333  1.0000
  Zr  Zr405     1.0  0.83333  0.53997  0.33333  1.0000
  Zr  Zr406     1.0  0.83333  0.46003  0.33333  1.0000
  Zr  Zr407     1.0  0.83333  0.50000  0.37330  1.0000
  Zr  Zr408     1.0  0.83333  0.50000  0.62671  1.0000
  O   O2049     1.0  0.72349  0.33333  0.36510  1.0000
  O   O2050     1.0  0.94319  0.33333  0.36510  1.0000
  O   O2051     1.0  0.94319  0.33333  0.63491  1.0000
  O   O2052     1.0  0.72349  0.33333  0.63491  1.0000
  O   O2053     1.0  0.69844  0.39016  0.33333  1.0000
  O   O2054     1.0  0.69844  0.60986  0.33333  1.0000
  O   O2055     1.0  0.96824  0.60986  0.33333  1.0000
  O   O2056     1.0  0.96824  0.39016  0.33333  1.0000
  O   O2057     1.0  0.66667  0.36510  0.39016  1.0000
  O   O2058     1.0  0.66667  0.36510  0.60986  1.0000
  O   O2059     1.0  0.66667  0.63491  0.60986  1.0000
  O   O2060     1.0  0.66667  0.63491  0.39016  1.0000
  O   O2061     1.0  0.66667  0.39016  0.63491  1.0000
  O   O2062     1.0  0.66667  0.60986  0.63491  1.0000
  O   O2063     1.0  0.66667  0.60986  0.36510  1.0000
  O   O2064     1.0  0.66667  0.39016  0.36510  1.0000
  O   O2065     1.0  0.72349  0.36510  0.33333  1.0000
  O   O2066     1.0  0.94319  0.36510  0.33333  1.0000
  O   O2067     1.0  0.94319  0.63491  0.33333  1.0000
  O   O2068     1.0  0.72349  0.63491  0.33333  1.0000
  O   O2069     1.0  0.69844  0.33333  0.60986  1.0000
  O   O2070     1.0  0.69844  0.33333  0.39016  1.0000
  O   O2071     1.0  0.96824  0.33333  0.39016  1.0000
  O   O2072     1.0  0.96824  0.33333  0.60986  1.0000
  O   O2073     1.0  0.72349  0.50000  0.53177  1.0000
  O   O2074     1.0  0.94319  0.50000  0.53177  1.0000
  O   O2075     1.0  0.94319  0.50000  0.46823  1.0000
  O   O2076     1.0  0.72349  0.50000  0.46823  1.0000
  O   O2077     1.0  0.69844  0.55683  0.50000  1.0000
  O   O2078     1.0  0.69844  0.44317  0.50000  1.0000
  O   O2079     1.0  0.96824  0.44317  0.50000  1.0000
  O   O2080     1.0  0.96824  0.55683  0.50000  1.0000
  O   O2081     1.0  0.66667  0.53177  0.55683  1.0000
  O   O2082     1.0  0.66667  0.53177  0.44317  1.0000
  O   O2083     1.0  0.66667  0.46823  0.44317  1.0000
  O   O2084     1.0  0.66667  0.46823  0.55683  1.0000
  O   O2085     1.0  0.66667  0.55683  0.46823  1.0000
  O   O2086     1.0  0.66667  0.44317  0.46823  1.0000
  O   O2087     1.0  0.66667  0.44317  0.53177  1.0000
  O   O2088     1.0  0.66667  0.55683  0.53177  1.0000
  O   O2089     1.0  0.72349  0.53177  0.50000  1.0000
  O   O2090     1.0  0.94319  0.53177  0.50000  1.0000
  O   O2091     1.0  0.94319  0.46823  0.50000  1.0000
  O   O2092     1.0  0.72349  0.46823  0.50000  1.0000
  O   O2093     1.0  0.69844  0.50000  0.44317  1.0000
  O   O2094     1.0  0.69844  0.50000  0.55683  1.0000
  O   O2095     1.0  0.96824  0.50000  0.55683  1.0000
  O   O2096     1.0  0.96824  0.50000  0.44317  1.0000
  O   O2097     1.0  0.89016  0.33333  0.53177  1.0000
  O   O2098     1.0  0.77651  0.33333  0.53177  1.0000
  O   O2099     1.0  0.77651  0.33333  0.46823  1.0000
  O   O2100     1.0  0.89016  0.33333  0.46823  1.0000
  O   O2101     1.0  0.86510  0.39016  0.50000  1.0000
  O   O2102     1.0  0.86510  0.60986  0.50000  1.0000
  O   O2103     1.0  0.80156  0.60986  0.50000  1.0000
  O   O2104     1.0  0.80156  0.39016  0.50000  1.0000
  O   O2105     1.0  0.83333  0.36510  0.55683  1.0000
  O   O2106     1.0  0.83333  0.36510  0.44317  1.0000
  O   O2107     1.0  0.83333  0.63491  0.44317  1.0000
  O   O2108     1.0  0.83333  0.63491  0.55683  1.0000
  O   O2109     1.0  0.83333  0.39016  0.46823  1.0000
  O   O2110     1.0  0.83333  0.60986  0.46823  1.0000
  O   O2111     1.0  0.83333  0.60986  0.53177  1.0000
  O   O2112     1.0  0.83333  0.39016  0.53177  1.0000
  O   O2113     1.0  0.89016  0.36510  0.50000  1.0000
  O   O2114     1.0  0.77651  0.36510  0.50000  1.0000
  O   O2115     1.0  0.77651  0.63491  0.50000  1.0000
  O   O2116     1.0  0.89016  0.63491  0.50000  1.0000
  O   O2117     1.0  0.86510  0.33333  0.44317  1.0000
  O   O2118     1.0  0.86510  0.33333  0.55683  1.0000
  O   O2119     1.0  0.80156  0.33333  0.55683  1.0000
  O   O2120     1.0  0.80156  0.33333  0.44317  1.0000
  O   O2121     1.0  0.89016  0.50000  0.36510  1.0000
  O   O2122     1.0  0.77651  0.50000  0.36510  1.0000
  O   O2123     1.0  0.77651  0.50000  0.63491  1.0000
  O   O2124     1.0  0.89016  0.50000  0.63491  1.0000
  O   O2125     1.0  0.86510  0.55683  0.33333  1.0000
  O   O2126     1.0  0.86510  0.44317  0.33333  1.0000
  O   O2127     1.0  0.80156  0.44317  0.33333  1.0000
  O   O2128     1.0  0.80156  0.55683  0.33333  1.0000
  O   O2129     1.0  0.83333  0.53177  0.39016  1.0000
  O   O2130     1.0  0.83333  0.53177  0.60986  1.0000
  O   O2131     1.0  0.83333  0.46823  0.60986  1.0000
  O   O2132     1.0  0.83333  0.46823  0.39016  1.0000
  O   O2133     1.0  0.83333  0.55683  0.63491  1.0000
  O   O2134     1.0  0.83333  0.44317  0.63491  1.0000
  O   O2135     1.0  0.83333  0.44317  0.36510  1.0000
  O   O2136     1.0  0.83333  0.55683  0.36510  1.0000
  O   O2137     1.0  0.89016  0.53177  0.33333  1.0000
  O   O2138     1.0  0.77651  0.53177  0.33333  1.0000
  O   O2139     1.0  0.77651  0.46823  0.33333  1.0000
  O   O2140     1.0  0.89016  0.46823  0.33333  1.0000
  O   O2141     1.0  0.86510  0.50000  0.60986  1.0000
  O   O2142     1.0  0.86510  0.50000  0.39016  1.0000
  O   O2143     1.0  0.80156  0.50000  0.39016  1.0000
  O   O2144     1.0  0.80156  0.50000  0.60986  1.0000
  O   O2145     1.0  0.68536  0.64797  0.64797  1.0000
  O   O2146     1.0  0.98130  0.35203  0.64797  1.0000
  O   O2147     1.0  0.98130  0.64797  0.35203  1.0000
  O   O2148     1.0  0.68536  0.35203  0.35203  1.0000
  O   O2149     1.0  0.98130  0.35203  0.35203  1.0000
  O   O2150     1.0  0.68536  0.64797  0.35203  1.0000
  O   O2151     1.0  0.98130  0.64797  0.64797  1.0000
  O   O2152     1.0  0.68536  0.35203  0.64797  1.0000
  O   O2153     1.0  0.68536  0.48130  0.48130  1.0000
  O   O2154     1.0  0.98130  0.51870  0.48130  1.0000
  O   O2155     1.0  0.98130  0.48130  0.51870  1.0000
  O   O2156     1.0  0.68536  0.51870  0.51870  1.0000
  O   O2157     1.0  0.98130  0.51870  0.51870  1.0000
  O   O2158     1.0  0.68536  0.48130  0.51870  1.0000
  O   O2159     1.0  0.98130  0.48130  0.48130  1.0000
  O   O2160     1.0  0.68536  0.51870  0.48130  1.0000
  O   O2161     1.0  0.85203  0.64797  0.48130  1.0000
  O   O2162     1.0  0.81464  0.35203  0.48130  1.0000
  O   O2163     1.0  0.81464  0.64797  0.51870  1.0000
  O   O2164     1.0  0.85203  0.35203  0.51870  1.0000
  O   O2165     1.0  0.81464  0.35203  0.51870  1.0000
  O   O2166     1.0  0.85203  0.64797  0.51870  1.0000
  O   O2167     1.0  0.81464  0.64797  0.48130  1.0000
  O   O2168     1.0  0.85203  0.35203  0.48130  1.0000
  O   O2169     1.0  0.85203  0.48130  0.64797  1.0000
  O   O2170     1.0  0.81464  0.51870  0.64797  1.0000
  O   O2171     1.0  0.81464  0.48130  0.35203  1.0000
  O   O2172     1.0  0.85203  0.51870  0.35203  1.0000
  O   O2173     1.0  0.81464  0.51870  0.35203  1.0000
  O   O2174     1.0  0.85203  0.48130  0.35203  1.0000
  O   O2175     1.0  0.81464  0.48130  0.64797  1.0000
  O   O2176     1.0  0.85203  0.51870  0.64797  1.0000
  C   C2599     1.0  0.71787  0.33333  0.61548  1.0000
  C   C2600     1.0  0.94881  0.33333  0.61548  1.0000
  C   C2601     1.0  0.94881  0.33333  0.38454  1.0000
  C   C2602     1.0  0.71787  0.33333  0.38454  1.0000
  C   C2603     1.0  0.94881  0.38454  0.33333  1.0000
  C   C2604     1.0  0.94881  0.61548  0.33333  1.0000
  C   C2605     1.0  0.71787  0.61548  0.33333  1.0000
  C   C2606     1.0  0.71787  0.38454  0.33333  1.0000
  C   C2607     1.0  0.66667  0.61548  0.38454  1.0000
  C   C2608     1.0  0.66667  0.61548  0.61548  1.0000
  C   C2609     1.0  0.66667  0.38454  0.61548  1.0000
  C   C2610     1.0  0.66667  0.38454  0.38454  1.0000
  C   C2611     1.0  0.71787  0.50000  0.44881  1.0000
  C   C2612     1.0  0.94881  0.50000  0.44881  1.0000
  C   C2613     1.0  0.94881  0.50000  0.55121  1.0000
  C   C2614     1.0  0.71787  0.50000  0.55121  1.0000
  C   C2615     1.0  0.94881  0.55121  0.50000  1.0000
  C   C2616     1.0  0.94881  0.44881  0.50000  1.0000
  C   C2617     1.0  0.71787  0.44881  0.50000  1.0000
  C   C2618     1.0  0.71787  0.55121  0.50000  1.0000
  C   C2619     1.0  0.66667  0.44881  0.55121  1.0000
  C   C2620     1.0  0.66667  0.44881  0.44881  1.0000
  C   C2621     1.0  0.66667  0.55121  0.44881  1.0000
  C   C2622     1.0  0.66667  0.55121  0.55121  1.0000
  C   C2623     1.0  0.88454  0.33333  0.44881  1.0000
  C   C2624     1.0  0.78214  0.33333  0.44881  1.0000
  C   C2625     1.0  0.78214  0.33333  0.55121  1.0000
  C   C2626     1.0  0.88454  0.33333  0.55121  1.0000
  C   C2627     1.0  0.78214  0.38454  0.50000  1.0000
  C   C2628     1.0  0.78214  0.61548  0.50000  1.0000
  C   C2629     1.0  0.88454  0.61548  0.50000  1.0000
  C   C2630     1.0  0.88454  0.38454  0.50000  1.0000
  C   C2631     1.0  0.83333  0.61548  0.55121  1.0000
  C   C2632     1.0  0.83333  0.61548  0.44881  1.0000
  C   C2633     1.0  0.83333  0.38454  0.44881  1.0000
  C   C2634     1.0  0.83333  0.38454  0.55121  1.0000
  C   C2635     1.0  0.88454  0.50000  0.61548  1.0000
  C   C2636     1.0  0.78214  0.50000  0.61548  1.0000
  C   C2637     1.0  0.78214  0.50000  0.38454  1.0000
  C   C2638     1.0  0.88454  0.50000  0.38454  1.0000
  C   C2639     1.0  0.78214  0.55121  0.33333  1.0000
  C   C2640     1.0  0.78214  0.44881  0.33333  1.0000
  C   C2641     1.0  0.88454  0.44881  0.33333  1.0000
  C   C2642     1.0  0.88454  0.55121  0.33333  1.0000
  C   C2643     1.0  0.83333  0.44881  0.38454  1.0000
  C   C2644     1.0  0.83333  0.44881  0.61548  1.0000
  C   C2645     1.0  0.83333  0.55121  0.61548  1.0000
  C   C2646     1.0  0.83333  0.55121  0.38454  1.0000
  C   C2647     1.0  0.73501  0.33333  0.40167  1.0000
  C   C2648     1.0  0.93167  0.33333  0.40167  1.0000
  C   C2649     1.0  0.93167  0.33333  0.59834  1.0000
  C   C2650     1.0  0.73501  0.33333  0.59834  1.0000
  C   C2651     1.0  0.73501  0.40167  0.33333  1.0000
  C   C2652     1.0  0.73501  0.59834  0.33333  1.0000
  C   C2653     1.0  0.93167  0.59834  0.33333  1.0000
  C   C2654     1.0  0.93167  0.40167  0.33333  1.0000
  C   C2655     1.0  0.66667  0.40167  0.40167  1.0000
  C   C2656     1.0  0.66667  0.40167  0.59834  1.0000
  C   C2657     1.0  0.66667  0.59834  0.59834  1.0000
  C   C2658     1.0  0.73501  0.50000  0.56834  1.0000
  C   C2659     1.0  0.93167  0.50000  0.56834  1.0000
  C   C2660     1.0  0.93167  0.50000  0.43167  1.0000
  C   C2661     1.0  0.73501  0.50000  0.43167  1.0000
  C   C2662     1.0  0.73501  0.56834  0.50000  1.0000
  C   C2663     1.0  0.93167  0.43167  0.50000  1.0000
  C   C2664     1.0  0.93167  0.56834  0.50000  1.0000
  C   C2665     1.0  0.66667  0.56834  0.56834  1.0000
  C   C2666     1.0  0.66667  0.43167  0.43167  1.0000
  C   C2667     1.0  0.66667  0.43167  0.56834  1.0000
  C   C2668     1.0  0.90167  0.33333  0.56834  1.0000
  C   C2669     1.0  0.76501  0.33333  0.56834  1.0000
  C   C2670     1.0  0.76501  0.33333  0.43167  1.0000
  C   C2671     1.0  0.90167  0.33333  0.43167  1.0000
  C   C2672     1.0  0.90167  0.40167  0.50000  1.0000
  C   C2673     1.0  0.90167  0.59834  0.50000  1.0000
  C   C2674     1.0  0.76501  0.59834  0.50000  1.0000
  C   C2675     1.0  0.83333  0.40167  0.43167  1.0000
  C   C2676     1.0  0.83333  0.59834  0.43167  1.0000
  C   C2677     1.0  0.90167  0.50000  0.40167  1.0000
  C   C2678     1.0  0.76501  0.50000  0.40167  1.0000
  C   C2679     1.0  0.76501  0.50000  0.59834  1.0000
  C   C2680     1.0  0.90167  0.50000  0.59834  1.0000
  C   C2681     1.0  0.90167  0.56834  0.33333  1.0000
  C   C2682     1.0  0.90167  0.43167  0.33333  1.0000
  C   C2683     1.0  0.76501  0.43167  0.33333  1.0000
  C   C2684     1.0  0.76501  0.56834  0.33333  1.0000
  C   C2685     1.0  0.83333  0.56834  0.40167  1.0000
  C   C2686     1.0  0.83333  0.43167  0.40167  1.0000
  C   C2687     1.0  0.75583  0.33333  0.39480  1.0000
  C   C2688     1.0  0.91084  0.33333  0.39480  1.0000
  C   C2689     1.0  0.91084  0.33333  0.60520  1.0000
  C   C2690     1.0  0.75583  0.33333  0.60520  1.0000
  C   C2691     1.0  0.72813  0.42250  0.33333  1.0000
  C   C2692     1.0  0.72813  0.57750  0.33333  1.0000
  C   C2693     1.0  0.93853  0.57750  0.33333  1.0000
  C   C2694     1.0  0.93853  0.42250  0.33333  1.0000
  C   C2695     1.0  0.66667  0.39480  0.42250  1.0000
  C   C2696     1.0  0.66667  0.39480  0.57750  1.0000
  C   C2697     1.0  0.66667  0.60520  0.57750  1.0000
  C   C2698     1.0  0.66667  0.42250  0.60520  1.0000
  C   C2699     1.0  0.66667  0.57750  0.60520  1.0000
  C   C2700     1.0  0.66667  0.42250  0.39480  1.0000
  C   C2701     1.0  0.75583  0.39480  0.33333  1.0000
  C   C2702     1.0  0.91084  0.39480  0.33333  1.0000
  C   C2703     1.0  0.91084  0.60520  0.33333  1.0000
  C   C2704     1.0  0.75583  0.60520  0.33333  1.0000
  C   C2705     1.0  0.72813  0.33333  0.57750  1.0000
  C   C2706     1.0  0.72813  0.33333  0.42250  1.0000
  C   C2707     1.0  0.93853  0.33333  0.42250  1.0000
  C   C2708     1.0  0.93853  0.33333  0.57750  1.0000
  C   C2709     1.0  0.75583  0.50000  0.56147  1.0000
  C   C2710     1.0  0.91084  0.50000  0.56147  1.0000
  C   C2711     1.0  0.91084  0.50000  0.43853  1.0000
  C   C2712     1.0  0.75583  0.50000  0.43853  1.0000
  C   C2713     1.0  0.72813  0.58918  0.50000  1.0000
  C   C2714     1.0  0.93853  0.41084  0.50000  1.0000
  C   C2715     1.0  0.93853  0.58918  0.50000  1.0000
  C   C2716     1.0  0.66667  0.56147  0.58918  1.0000
  C   C2717     1.0  0.66667  0.43853  0.41084  1.0000
  C   C2718     1.0  0.66667  0.43853  0.58918  1.0000
  C   C2719     1.0  0.66667  0.41084  0.43853  1.0000
  C   C2720     1.0  0.66667  0.41084  0.56147  1.0000
  C   C2721     1.0  0.66667  0.58918  0.56147  1.0000
  C   C2722     1.0  0.75583  0.56147  0.50000  1.0000
  C   C2723     1.0  0.91084  0.56147  0.50000  1.0000
  C   C2724     1.0  0.91084  0.43853  0.50000  1.0000
  C   C2725     1.0  0.72813  0.50000  0.41084  1.0000
  C   C2726     1.0  0.72813  0.50000  0.58918  1.0000
  C   C2727     1.0  0.93853  0.50000  0.58918  1.0000
  C   C2728     1.0  0.93853  0.50000  0.41084  1.0000
  C   C2729     1.0  0.92251  0.33333  0.56147  1.0000
  C   C2730     1.0  0.74417  0.33333  0.56147  1.0000
  C   C2731     1.0  0.74417  0.33333  0.43853  1.0000
  C   C2732     1.0  0.92251  0.33333  0.43853  1.0000
  C   C2733     1.0  0.89480  0.42250  0.50000  1.0000
  C   C2734     1.0  0.89480  0.57750  0.50000  1.0000
  C   C2735     1.0  0.77187  0.57750  0.50000  1.0000
  C   C2736     1.0  0.83333  0.39480  0.41084  1.0000
  C   C2737     1.0  0.83333  0.60520  0.41084  1.0000
  C   C2738     1.0  0.83333  0.42250  0.43853  1.0000
  C   C2739     1.0  0.83333  0.57750  0.43853  1.0000
  C   C2740     1.0  0.92251  0.39480  0.50000  1.0000
  C   C2741     1.0  0.74417  0.60520  0.50000  1.0000
  C   C2742     1.0  0.92251  0.60520  0.50000  1.0000
  C   C2743     1.0  0.89480  0.33333  0.41084  1.0000
  C   C2744     1.0  0.89480  0.33333  0.58918  1.0000
  C   C2745     1.0  0.77187  0.33333  0.58918  1.0000
  C   C2746     1.0  0.77187  0.33333  0.41084  1.0000
  C   C2747     1.0  0.92251  0.50000  0.39480  1.0000
  C   C2748     1.0  0.74417  0.50000  0.39480  1.0000
  C   C2749     1.0  0.74417  0.50000  0.60520  1.0000
  C   C2750     1.0  0.92251  0.50000  0.60520  1.0000
  C   C2751     1.0  0.89480  0.58918  0.33333  1.0000
  C   C2752     1.0  0.89480  0.41084  0.33333  1.0000
  C   C2753     1.0  0.77187  0.41084  0.33333  1.0000
  C   C2754     1.0  0.77187  0.58918  0.33333  1.0000
  C   C2755     1.0  0.83333  0.56147  0.42250  1.0000
  C   C2756     1.0  0.83333  0.43853  0.42250  1.0000
  C   C2757     1.0  0.83333  0.41084  0.39480  1.0000
  C   C2758     1.0  0.83333  0.58918  0.39480  1.0000
  C   C2759     1.0  0.92251  0.56147  0.33333  1.0000
  C   C2760     1.0  0.74417  0.56147  0.33333  1.0000
  C   C2761     1.0  0.74417  0.43853  0.33333  1.0000
  C   C2762     1.0  0.92251  0.43853  0.33333  1.0000
  C   C2763     1.0  0.89480  0.50000  0.57750  1.0000
  C   C2764     1.0  0.89480  0.50000  0.42250  1.0000
  C   C2765     1.0  0.77187  0.50000  0.42250  1.0000
  C   C2766     1.0  0.77187  0.50000  0.57750  1.0000
  H   H1221     1.0  0.75968  0.33333  0.37863  1.0000
  H   H1222     1.0  0.90699  0.33333  0.37863  1.0000
  H   H1223     1.0  0.90699  0.33333  0.62137  1.0000
  H   H1224     1.0  0.75968  0.33333  0.62137  1.0000
  H   H1225     1.0  0.71196  0.42634  0.33333  1.0000
  H   H1226     1.0  0.71196  0.57366  0.33333  1.0000
  H   H1227     1.0  0.95470  0.57366  0.33333  1.0000
  H   H1228     1.0  0.95470  0.42634  0.33333  1.0000
  H   H1229     1.0  0.66667  0.37863  0.42634  1.0000
  H   H1230     1.0  0.66667  0.37863  0.57366  1.0000
  H   H1231     1.0  0.66667  0.62137  0.57366  1.0000
  H   H1232     1.0  0.66667  0.42634  0.62137  1.0000
  H   H1233     1.0  0.66667  0.57366  0.62137  1.0000
  H   H1234     1.0  0.66667  0.42634  0.37863  1.0000
  H   H1235     1.0  0.75968  0.37863  0.33333  1.0000
  H   H1236     1.0  0.90699  0.37863  0.33333  1.0000
  H   H1237     1.0  0.90699  0.62137  0.33333  1.0000
  H   H1238     1.0  0.75968  0.62137  0.33333  1.0000
  H   H1239     1.0  0.71196  0.33333  0.57366  1.0000
  H   H1240     1.0  0.71196  0.33333  0.42634  1.0000
  H   H1241     1.0  0.95470  0.33333  0.42634  1.0000
  H   H1242     1.0  0.95470  0.33333  0.57366  1.0000
  H   H1243     1.0  0.75968  0.50000  0.54530  1.0000
  H   H1244     1.0  0.90699  0.50000  0.54530  1.0000
  H   H1245     1.0  0.90699  0.50000  0.45470  1.0000
  H   H1246     1.0  0.75968  0.50000  0.45470  1.0000
  H   H1247     1.0  0.71196  0.59301  0.50000  1.0000
  H   H1248     1.0  0.95470  0.40699  0.50000  1.0000
  H   H1249     1.0  0.95470  0.59301  0.50000  1.0000
  H   H1250     1.0  0.66667  0.54530  0.59301  1.0000
  H   H1251     1.0  0.66667  0.45470  0.40699  1.0000
  H   H1252     1.0  0.66667  0.45470  0.59301  1.0000
  H   H1253     1.0  0.66667  0.40699  0.45470  1.0000
  H   H1254     1.0  0.66667  0.40699  0.54530  1.0000
  H   H1255     1.0  0.66667  0.59301  0.54530  1.0000
  H   H1256     1.0  0.75968  0.54530  0.50000  1.0000
  H   H1257     1.0  0.90699  0.54530  0.50000  1.0000
  H   H1258     1.0  0.90699  0.45470  0.50000  1.0000
  H   H1259     1.0  0.71196  0.50000  0.40699  1.0000
  H   H1260     1.0  0.71196  0.50000  0.59301  1.0000
  H   H1261     1.0  0.95470  0.50000  0.59301  1.0000
  H   H1262     1.0  0.95470  0.50000  0.40699  1.0000
  H   H1263     1.0  0.92634  0.33333  0.54530  1.0000
  H   H1264     1.0  0.74032  0.33333  0.54530  1.0000
  H   H1265     1.0  0.74032  0.33333  0.45470  1.0000
  H   H1266     1.0  0.92634  0.33333  0.45470  1.0000
  H   H1267     1.0  0.87863  0.42634  0.50000  1.0000
  H   H1268     1.0  0.87863  0.57366  0.50000  1.0000
  H   H1269     1.0  0.78804  0.57366  0.50000  1.0000
  H   H1270     1.0  0.83333  0.37863  0.40699  1.0000
  H   H1271     1.0  0.83333  0.62137  0.40699  1.0000
  H   H1272     1.0  0.83333  0.42634  0.45470  1.0000
  H   H1273     1.0  0.83333  0.57366  0.45470  1.0000
  H   H1274     1.0  0.92634  0.37863  0.50000  1.0000
  H   H1275     1.0  0.74032  0.62137  0.50000  1.0000
  H   H1276     1.0  0.92634  0.62137  0.50000  1.0000
  H   H1277     1.0  0.87863  0.33333  0.40699  1.0000
  H   H1278     1.0  0.87863  0.33333  0.59301  1.0000
  H   H1279     1.0  0.78804  0.33333  0.59301  1.0000
  H   H1280     1.0  0.78804  0.33333  0.40699  1.0000
  H   H1281     1.0  0.92634  0.50000  0.37863  1.0000
  H   H1282     1.0  0.74032  0.50000  0.37863  1.0000
  H   H1283     1.0  0.74032  0.50000  0.62137  1.0000
  H   H1284     1.0  0.92634  0.50000  0.62137  1.0000
  H   H1285     1.0  0.87863  0.59301  0.33333  1.0000
  H   H1286     1.0  0.87863  0.40699  0.33333  1.0000
  H   H1287     1.0  0.78804  0.40699  0.33333  1.0000
  H   H1288     1.0  0.78804  0.59301  0.33333  1.0000
  H   H1289     1.0  0.83333  0.54530  0.42634  1.0000
  H   H1290     1.0  0.83333  0.45470  0.42634  1.0000
  H   H1291     1.0  0.83333  0.40699  0.37863  1.0000
  H   H1292     1.0  0.83333  0.59301  0.37863  1.0000
  H   H1293     1.0  0.92634  0.54530  0.33333  1.0000
  H   H1294     1.0  0.74032  0.54530  0.33333  1.0000
  H   H1295     1.0  0.74032  0.45470  0.33333  1.0000
  H   H1296     1.0  0.92634  0.45470  0.33333  1.0000
  H   H1297     1.0  0.87863  0.50000  0.57366  1.0000
  H   H1298     1.0  0.87863  0.50000  0.42634  1.0000
  H   H1299     1.0  0.78804  0.50000  0.42634  1.0000
  H   H1300     1.0  0.78804  0.50000  0.57366  1.0000
  Zr  Zr409     1.0  0.70663  0.66667  0.33333  1.0000
  Zr  Zr410     1.0  0.96005  0.66667  0.33333  1.0000
  Zr  Zr411     1.0  0.66667  0.70663  0.33333  1.0000
  Zr  Zr412     1.0  0.66667  0.96005  0.33333  1.0000
  Zr  Zr413     1.0  0.66667  0.66667  0.37330  1.0000
  Zr  Zr414     1.0  0.66667  0.66667  0.62671  1.0000
  Zr  Zr415     1.0  0.70663  0.83333  0.50000  1.0000
  Zr  Zr416     1.0  0.96005  0.83333  0.50000  1.0000
  Zr  Zr417     1.0  0.66667  0.87330  0.50000  1.0000
  Zr  Zr418     1.0  0.66667  0.79337  0.50000  1.0000
  Zr  Zr419     1.0  0.66667  0.83333  0.53997  1.0000
  Zr  Zr420     1.0  0.66667  0.83333  0.46003  1.0000
  Zr  Zr421     1.0  0.87330  0.66667  0.50000  1.0000
  Zr  Zr422     1.0  0.79337  0.66667  0.50000  1.0000
  Zr  Zr423     1.0  0.83333  0.70663  0.50000  1.0000
  Zr  Zr424     1.0  0.83333  0.96005  0.50000  1.0000
  Zr  Zr425     1.0  0.83333  0.66667  0.53997  1.0000
  Zr  Zr426     1.0  0.83333  0.66667  0.46003  1.0000
  Zr  Zr427     1.0  0.87330  0.83333  0.33333  1.0000
  Zr  Zr428     1.0  0.79337  0.83333  0.33333  1.0000
  Zr  Zr429     1.0  0.83333  0.87330  0.33333  1.0000
  Zr  Zr430     1.0  0.83333  0.79337  0.33333  1.0000
  Zr  Zr431     1.0  0.83333  0.83333  0.37330  1.0000
  Zr  Zr432     1.0  0.83333  0.83333  0.62671  1.0000
  O   O2177     1.0  0.72349  0.66667  0.36510  1.0000
  O   O2178     1.0  0.94319  0.66667  0.36510  1.0000
  O   O2179     1.0  0.94319  0.66667  0.63491  1.0000
  O   O2180     1.0  0.72349  0.66667  0.63491  1.0000
  O   O2181     1.0  0.69844  0.72349  0.33333  1.0000
  O   O2182     1.0  0.69844  0.94319  0.33333  1.0000
  O   O2183     1.0  0.96824  0.94319  0.33333  1.0000
  O   O2184     1.0  0.96824  0.72349  0.33333  1.0000
  O   O2185     1.0  0.66667  0.69844  0.39016  1.0000
  O   O2186     1.0  0.66667  0.69844  0.60986  1.0000
  O   O2187     1.0  0.66667  0.96824  0.60986  1.0000
  O   O2188     1.0  0.66667  0.96824  0.39016  1.0000
  O   O2189     1.0  0.66667  0.72349  0.63491  1.0000
  O   O2190     1.0  0.66667  0.94319  0.63491  1.0000
  O   O2191     1.0  0.66667  0.94319  0.36510  1.0000
  O   O2192     1.0  0.66667  0.72349  0.36510  1.0000
  O   O2193     1.0  0.72349  0.69844  0.33333  1.0000
  O   O2194     1.0  0.94319  0.69844  0.33333  1.0000
  O   O2195     1.0  0.94319  0.96824  0.33333  1.0000
  O   O2196     1.0  0.72349  0.96824  0.33333  1.0000
  O   O2197     1.0  0.69844  0.66667  0.60986  1.0000
  O   O2198     1.0  0.69844  0.66667  0.39016  1.0000
  O   O2199     1.0  0.96824  0.66667  0.39016  1.0000
  O   O2200     1.0  0.96824  0.66667  0.60986  1.0000
  O   O2201     1.0  0.72349  0.83333  0.53177  1.0000
  O   O2202     1.0  0.94319  0.83333  0.53177  1.0000
  O   O2203     1.0  0.94319  0.83333  0.46823  1.0000
  O   O2204     1.0  0.72349  0.83333  0.46823  1.0000
  O   O2205     1.0  0.69844  0.89016  0.50000  1.0000
  O   O2206     1.0  0.69844  0.77651  0.50000  1.0000
  O   O2207     1.0  0.96824  0.77651  0.50000  1.0000
  O   O2208     1.0  0.96824  0.89016  0.50000  1.0000
  O   O2209     1.0  0.66667  0.86510  0.55683  1.0000
  O   O2210     1.0  0.66667  0.86510  0.44317  1.0000
  O   O2211     1.0  0.66667  0.80156  0.44317  1.0000
  O   O2212     1.0  0.66667  0.80156  0.55683  1.0000
  O   O2213     1.0  0.66667  0.89016  0.46823  1.0000
  O   O2214     1.0  0.66667  0.77651  0.46823  1.0000
  O   O2215     1.0  0.66667  0.77651  0.53177  1.0000
  O   O2216     1.0  0.66667  0.89016  0.53177  1.0000
  O   O2217     1.0  0.72349  0.86510  0.50000  1.0000
  O   O2218     1.0  0.94319  0.86510  0.50000  1.0000
  O   O2219     1.0  0.94319  0.80156  0.50000  1.0000
  O   O2220     1.0  0.72349  0.80156  0.50000  1.0000
  O   O2221     1.0  0.69844  0.83333  0.44317  1.0000
  O   O2222     1.0  0.69844  0.83333  0.55683  1.0000
  O   O2223     1.0  0.96824  0.83333  0.55683  1.0000
  O   O2224     1.0  0.96824  0.83333  0.44317  1.0000
  O   O2225     1.0  0.89016  0.66667  0.53177  1.0000
  O   O2226     1.0  0.77651  0.66667  0.53177  1.0000
  O   O2227     1.0  0.77651  0.66667  0.46823  1.0000
  O   O2228     1.0  0.89016  0.66667  0.46823  1.0000
  O   O2229     1.0  0.86510  0.72349  0.50000  1.0000
  O   O2230     1.0  0.86510  0.94319  0.50000  1.0000
  O   O2231     1.0  0.80156  0.94319  0.50000  1.0000
  O   O2232     1.0  0.80156  0.72349  0.50000  1.0000
  O   O2233     1.0  0.83333  0.69844  0.55683  1.0000
  O   O2234     1.0  0.83333  0.69844  0.44317  1.0000
  O   O2235     1.0  0.83333  0.96824  0.44317  1.0000
  O   O2236     1.0  0.83333  0.96824  0.55683  1.0000
  O   O2237     1.0  0.83333  0.72349  0.46823  1.0000
  O   O2238     1.0  0.83333  0.94319  0.46823  1.0000
  O   O2239     1.0  0.83333  0.94319  0.53177  1.0000
  O   O2240     1.0  0.83333  0.72349  0.53177  1.0000
  O   O2241     1.0  0.89016  0.69844  0.50000  1.0000
  O   O2242     1.0  0.77651  0.69844  0.50000  1.0000
  O   O2243     1.0  0.77651  0.96824  0.50000  1.0000
  O   O2244     1.0  0.89016  0.96824  0.50000  1.0000
  O   O2245     1.0  0.86510  0.66667  0.44317  1.0000
  O   O2246     1.0  0.86510  0.66667  0.55683  1.0000
  O   O2247     1.0  0.80156  0.66667  0.55683  1.0000
  O   O2248     1.0  0.80156  0.66667  0.44317  1.0000
  O   O2249     1.0  0.89016  0.83333  0.36510  1.0000
  O   O2250     1.0  0.77651  0.83333  0.36510  1.0000
  O   O2251     1.0  0.77651  0.83333  0.63491  1.0000
  O   O2252     1.0  0.89016  0.83333  0.63491  1.0000
  O   O2253     1.0  0.86510  0.89016  0.33333  1.0000
  O   O2254     1.0  0.86510  0.77651  0.33333  1.0000
  O   O2255     1.0  0.80156  0.77651  0.33333  1.0000
  O   O2256     1.0  0.80156  0.89016  0.33333  1.0000
  O   O2257     1.0  0.83333  0.86510  0.39016  1.0000
  O   O2258     1.0  0.83333  0.86510  0.60986  1.0000
  O   O2259     1.0  0.83333  0.80156  0.60986  1.0000
  O   O2260     1.0  0.83333  0.80156  0.39016  1.0000
  O   O2261     1.0  0.83333  0.89016  0.63491  1.0000
  O   O2262     1.0  0.83333  0.77651  0.63491  1.0000
  O   O2263     1.0  0.83333  0.77651  0.36510  1.0000
  O   O2264     1.0  0.83333  0.89016  0.36510  1.0000
  O   O2265     1.0  0.89016  0.86510  0.33333  1.0000
  O   O2266     1.0  0.77651  0.86510  0.33333  1.0000
  O   O2267     1.0  0.77651  0.80156  0.33333  1.0000
  O   O2268     1.0  0.89016  0.80156  0.33333  1.0000
  O   O2269     1.0  0.86510  0.83333  0.60986  1.0000
  O   O2270     1.0  0.86510  0.83333  0.39016  1.0000
  O   O2271     1.0  0.80156  0.83333  0.39016  1.0000
  O   O2272     1.0  0.80156  0.83333  0.60986  1.0000
  O   O2273     1.0  0.68536  0.98130  0.64797  1.0000
  O   O2274     1.0  0.98130  0.68536  0.64797  1.0000
  O   O2275     1.0  0.98130  0.98130  0.35203  1.0000
  O   O2276     1.0  0.68536  0.68536  0.35203  1.0000
  O   O2277     1.0  0.98130  0.68536  0.35203  1.0000
  O   O2278     1.0  0.68536  0.98130  0.35203  1.0000
  O   O2279     1.0  0.98130  0.98130  0.64797  1.0000
  O   O2280     1.0  0.68536  0.68536  0.64797  1.0000
  O   O2281     1.0  0.68536  0.81464  0.48130  1.0000
  O   O2282     1.0  0.98130  0.85203  0.48130  1.0000
  O   O2283     1.0  0.98130  0.81464  0.51870  1.0000
  O   O2284     1.0  0.68536  0.85203  0.51870  1.0000
  O   O2285     1.0  0.98130  0.85203  0.51870  1.0000
  O   O2286     1.0  0.68536  0.81464  0.51870  1.0000
  O   O2287     1.0  0.98130  0.81464  0.48130  1.0000
  O   O2288     1.0  0.68536  0.85203  0.48130  1.0000
  O   O2289     1.0  0.85203  0.98130  0.48130  1.0000
  O   O2290     1.0  0.81464  0.68536  0.48130  1.0000
  O   O2291     1.0  0.81464  0.98130  0.51870  1.0000
  O   O2292     1.0  0.85203  0.68536  0.51870  1.0000
  O   O2293     1.0  0.81464  0.68536  0.51870  1.0000
  O   O2294     1.0  0.85203  0.98130  0.51870  1.0000
  O   O2295     1.0  0.81464  0.98130  0.48130  1.0000
  O   O2296     1.0  0.85203  0.68536  0.48130  1.0000
  O   O2297     1.0  0.85203  0.81464  0.64797  1.0000
  O   O2298     1.0  0.81464  0.85203  0.64797  1.0000
  O   O2299     1.0  0.81464  0.81464  0.35203  1.0000
  O   O2300     1.0  0.85203  0.85203  0.35203  1.0000
  O   O2301     1.0  0.81464  0.85203  0.35203  1.0000
  O   O2302     1.0  0.85203  0.81464  0.35203  1.0000
  O   O2303     1.0  0.81464  0.81464  0.64797  1.0000
  O   O2304     1.0  0.85203  0.85203  0.64797  1.0000
  C   C2767     1.0  0.71787  0.66667  0.61548  1.0000
  C   C2768     1.0  0.94881  0.66667  0.61548  1.0000
  C   C2769     1.0  0.94881  0.66667  0.38454  1.0000
  C   C2770     1.0  0.71787  0.66667  0.38454  1.0000
  C   C2771     1.0  0.94881  0.71787  0.33333  1.0000
  C   C2772     1.0  0.94881  0.94881  0.33333  1.0000
  C   C2773     1.0  0.71787  0.94881  0.33333  1.0000
  C   C2774     1.0  0.71787  0.71787  0.33333  1.0000
  C   C2775     1.0  0.66667  0.94881  0.38454  1.0000
  C   C2776     1.0  0.66667  0.94881  0.61548  1.0000
  C   C2777     1.0  0.66667  0.71787  0.61548  1.0000
  C   C2778     1.0  0.66667  0.71787  0.38454  1.0000
  C   C2779     1.0  0.71787  0.83333  0.44881  1.0000
  C   C2780     1.0  0.94881  0.83333  0.44881  1.0000
  C   C2781     1.0  0.94881  0.83333  0.55121  1.0000
  C   C2782     1.0  0.71787  0.83333  0.55121  1.0000
  C   C2783     1.0  0.94881  0.88454  0.50000  1.0000
  C   C2784     1.0  0.94881  0.78214  0.50000  1.0000
  C   C2785     1.0  0.71787  0.78214  0.50000  1.0000
  C   C2786     1.0  0.71787  0.88454  0.50000  1.0000
  C   C2787     1.0  0.66667  0.78214  0.55121  1.0000
  C   C2788     1.0  0.66667  0.78214  0.44881  1.0000
  C   C2789     1.0  0.66667  0.88454  0.44881  1.0000
  C   C2790     1.0  0.66667  0.88454  0.55121  1.0000
  C   C2791     1.0  0.88454  0.66667  0.44881  1.0000
  C   C2792     1.0  0.78214  0.66667  0.44881  1.0000
  C   C2793     1.0  0.78214  0.66667  0.55121  1.0000
  C   C2794     1.0  0.88454  0.66667  0.55121  1.0000
  C   C2795     1.0  0.78214  0.71787  0.50000  1.0000
  C   C2796     1.0  0.78214  0.94881  0.50000  1.0000
  C   C2797     1.0  0.88454  0.94881  0.50000  1.0000
  C   C2798     1.0  0.88454  0.71787  0.50000  1.0000
  C   C2799     1.0  0.83333  0.94881  0.55121  1.0000
  C   C2800     1.0  0.83333  0.94881  0.44881  1.0000
  C   C2801     1.0  0.83333  0.71787  0.44881  1.0000
  C   C2802     1.0  0.83333  0.71787  0.55121  1.0000
  C   C2803     1.0  0.88454  0.83333  0.61548  1.0000
  C   C2804     1.0  0.78214  0.83333  0.61548  1.0000
  C   C2805     1.0  0.78214  0.83333  0.38454  1.0000
  C   C2806     1.0  0.88454  0.83333  0.38454  1.0000
  C   C2807     1.0  0.78214  0.88454  0.33333  1.0000
  C   C2808     1.0  0.78214  0.78214  0.33333  1.0000
  C   C2809     1.0  0.88454  0.78214  0.33333  1.0000
  C   C2810     1.0  0.88454  0.88454  0.33333  1.0000
  C   C2811     1.0  0.83333  0.78214  0.38454  1.0000
  C   C2812     1.0  0.83333  0.78214  0.61548  1.0000
  C   C2813     1.0  0.83333  0.88454  0.61548  1.0000
  C   C2814     1.0  0.83333  0.88454  0.38454  1.0000
  C   C2815     1.0  0.73501  0.66667  0.40167  1.0000
  C   C2816     1.0  0.93167  0.66667  0.40167  1.0000
  C   C2817     1.0  0.93167  0.66667  0.59834  1.0000
  C   C2818     1.0  0.73501  0.93167  0.33333  1.0000
  C   C2819     1.0  0.93167  0.93167  0.33333  1.0000
  C   C2820     1.0  0.93167  0.73501  0.33333  1.0000
  C   C2821     1.0  0.66667  0.73501  0.40167  1.0000
  C   C2822     1.0  0.66667  0.73501  0.59834  1.0000
  C   C2823     1.0  0.66667  0.93167  0.59834  1.0000
  C   C2824     1.0  0.66667  0.93167  0.40167  1.0000
  C   C2825     1.0  0.73501  0.83333  0.56834  1.0000
  C   C2826     1.0  0.93167  0.83333  0.56834  1.0000
  C   C2827     1.0  0.93167  0.83333  0.43167  1.0000
  C   C2828     1.0  0.73501  0.90167  0.50000  1.0000
  C   C2829     1.0  0.73501  0.76501  0.50000  1.0000
  C   C2830     1.0  0.93167  0.76501  0.50000  1.0000
  C   C2831     1.0  0.93167  0.90167  0.50000  1.0000
  C   C2832     1.0  0.66667  0.90167  0.56834  1.0000
  C   C2833     1.0  0.66667  0.90167  0.43167  1.0000
  C   C2834     1.0  0.66667  0.76501  0.43167  1.0000
  C   C2835     1.0  0.66667  0.76501  0.56834  1.0000
  C   C2836     1.0  0.90167  0.66667  0.56834  1.0000
  C   C2837     1.0  0.76501  0.66667  0.43167  1.0000
  C   C2838     1.0  0.90167  0.66667  0.43167  1.0000
  C   C2839     1.0  0.90167  0.73501  0.50000  1.0000
  C   C2840     1.0  0.90167  0.93167  0.50000  1.0000
  C   C2841     1.0  0.76501  0.93167  0.50000  1.0000
  C   C2842     1.0  0.76501  0.73501  0.50000  1.0000
  C   C2843     1.0  0.83333  0.73501  0.56834  1.0000
  C   C2844     1.0  0.83333  0.73501  0.43167  1.0000
  C   C2845     1.0  0.83333  0.93167  0.56834  1.0000
  C   C2846     1.0  0.90167  0.83333  0.40167  1.0000
  C   C2847     1.0  0.76501  0.83333  0.59834  1.0000
  C   C2848     1.0  0.90167  0.83333  0.59834  1.0000
  C   C2849     1.0  0.90167  0.90167  0.33333  1.0000
  C   C2850     1.0  0.90167  0.76501  0.33333  1.0000
  C   C2851     1.0  0.76501  0.90167  0.33333  1.0000
  C   C2852     1.0  0.83333  0.90167  0.59834  1.0000
  C   C2853     1.0  0.83333  0.76501  0.59834  1.0000
  C   C2854     1.0  0.83333  0.76501  0.40167  1.0000
  C   C2855     1.0  0.75583  0.66667  0.39480  1.0000
  C   C2856     1.0  0.91084  0.66667  0.39480  1.0000
  C   C2857     1.0  0.91084  0.66667  0.60520  1.0000
  C   C2858     1.0  0.72813  0.91084  0.33333  1.0000
  C   C2859     1.0  0.93853  0.91084  0.33333  1.0000
  C   C2860     1.0  0.93853  0.75583  0.33333  1.0000
  C   C2861     1.0  0.66667  0.72813  0.42250  1.0000
  C   C2862     1.0  0.66667  0.72813  0.57750  1.0000
  C   C2863     1.0  0.66667  0.93853  0.57750  1.0000
  C   C2864     1.0  0.66667  0.93853  0.42250  1.0000
  C   C2865     1.0  0.66667  0.75583  0.60520  1.0000
  C   C2866     1.0  0.66667  0.91084  0.60520  1.0000
  C   C2867     1.0  0.66667  0.91084  0.39480  1.0000
  C   C2868     1.0  0.66667  0.75583  0.39480  1.0000
  C   C2869     1.0  0.91084  0.72813  0.33333  1.0000
  C   C2870     1.0  0.91084  0.93853  0.33333  1.0000
  C   C2871     1.0  0.75583  0.93853  0.33333  1.0000
  C   C2872     1.0  0.72813  0.66667  0.42250  1.0000
  C   C2873     1.0  0.93853  0.66667  0.42250  1.0000
  C   C2874     1.0  0.93853  0.66667  0.57750  1.0000
  C   C2875     1.0  0.75583  0.83333  0.56147  1.0000
  C   C2876     1.0  0.91084  0.83333  0.56147  1.0000
  C   C2877     1.0  0.91084  0.83333  0.43853  1.0000
  C   C2878     1.0  0.72813  0.92251  0.50000  1.0000
  C   C2879     1.0  0.72813  0.74417  0.50000  1.0000
  C   C2880     1.0  0.93853  0.74417  0.50000  1.0000
  C   C2881     1.0  0.93853  0.92251  0.50000  1.0000
  C   C2882     1.0  0.66667  0.89480  0.58918  1.0000
  C   C2883     1.0  0.66667  0.89480  0.41084  1.0000
  C   C2884     1.0  0.66667  0.77187  0.41084  1.0000
  C   C2885     1.0  0.66667  0.77187  0.58918  1.0000
  C   C2886     1.0  0.66667  0.92251  0.43853  1.0000
  C   C2887     1.0  0.66667  0.74417  0.43853  1.0000
  C   C2888     1.0  0.66667  0.74417  0.56147  1.0000
  C   C2889     1.0  0.66667  0.92251  0.56147  1.0000
  C   C2890     1.0  0.75583  0.89480  0.50000  1.0000
  C   C2891     1.0  0.91084  0.89480  0.50000  1.0000
  C   C2892     1.0  0.91084  0.77187  0.50000  1.0000
  C   C2893     1.0  0.75583  0.77187  0.50000  1.0000
  C   C2894     1.0  0.72813  0.83333  0.58918  1.0000
  C   C2895     1.0  0.93853  0.83333  0.58918  1.0000
  C   C2896     1.0  0.93853  0.83333  0.41084  1.0000
  C   C2897     1.0  0.92251  0.66667  0.56147  1.0000
  C   C2898     1.0  0.74417  0.66667  0.43853  1.0000
  C   C2899     1.0  0.92251  0.66667  0.43853  1.0000
  C   C2900     1.0  0.89480  0.75583  0.50000  1.0000
  C   C2901     1.0  0.89480  0.91084  0.50000  1.0000
  C   C2902     1.0  0.77187  0.91084  0.50000  1.0000
  C   C2903     1.0  0.77187  0.75583  0.50000  1.0000
  C   C2904     1.0  0.83333  0.72813  0.58918  1.0000
  C   C2905     1.0  0.83333  0.72813  0.41084  1.0000
  C   C2906     1.0  0.83333  0.93853  0.58918  1.0000
  C   C2907     1.0  0.83333  0.75583  0.43853  1.0000
  C   C2908     1.0  0.83333  0.91084  0.56147  1.0000
  C   C2909     1.0  0.83333  0.75583  0.56147  1.0000
  C   C2910     1.0  0.92251  0.72813  0.50000  1.0000
  C   C2911     1.0  0.74417  0.72813  0.50000  1.0000
  C   C2912     1.0  0.74417  0.93853  0.50000  1.0000
  C   C2913     1.0  0.92251  0.93853  0.50000  1.0000
  C   C2914     1.0  0.89480  0.66667  0.41084  1.0000
  C   C2915     1.0  0.89480  0.66667  0.58918  1.0000
  C   C2916     1.0  0.77187  0.66667  0.41084  1.0000
  C   C2917     1.0  0.92251  0.83333  0.39480  1.0000
  C   C2918     1.0  0.74417  0.83333  0.60520  1.0000
  C   C2919     1.0  0.92251  0.83333  0.60520  1.0000
  C   C2920     1.0  0.89480  0.92251  0.33333  1.0000
  C   C2921     1.0  0.89480  0.74417  0.33333  1.0000
  C   C2922     1.0  0.77187  0.92251  0.33333  1.0000
  C   C2923     1.0  0.83333  0.89480  0.57750  1.0000
  C   C2924     1.0  0.83333  0.77187  0.57750  1.0000
  C   C2925     1.0  0.83333  0.77187  0.42250  1.0000
  C   C2926     1.0  0.83333  0.92251  0.60520  1.0000
  C   C2927     1.0  0.83333  0.74417  0.60520  1.0000
  C   C2928     1.0  0.83333  0.74417  0.39480  1.0000
  C   C2929     1.0  0.92251  0.89480  0.33333  1.0000
  C   C2930     1.0  0.74417  0.89480  0.33333  1.0000
  C   C2931     1.0  0.92251  0.77187  0.33333  1.0000
  C   C2932     1.0  0.89480  0.83333  0.57750  1.0000
  C   C2933     1.0  0.89480  0.83333  0.42250  1.0000
  C   C2934     1.0  0.77187  0.83333  0.57750  1.0000
  H   H1301     1.0  0.75968  0.66667  0.37863  1.0000
  H   H1302     1.0  0.90699  0.66667  0.37863  1.0000
  H   H1303     1.0  0.90699  0.66667  0.62137  1.0000
  H   H1304     1.0  0.71196  0.90699  0.33333  1.0000
  H   H1305     1.0  0.95470  0.90699  0.33333  1.0000
  H   H1306     1.0  0.95470  0.75968  0.33333  1.0000
  H   H1307     1.0  0.66667  0.71196  0.42634  1.0000
  H   H1308     1.0  0.66667  0.71196  0.57366  1.0000
  H   H1309     1.0  0.66667  0.95470  0.57366  1.0000
  H   H1310     1.0  0.66667  0.95470  0.42634  1.0000
  H   H1311     1.0  0.66667  0.75968  0.62137  1.0000
  H   H1312     1.0  0.66667  0.90699  0.62137  1.0000
  H   H1313     1.0  0.66667  0.90699  0.37863  1.0000
  H   H1314     1.0  0.66667  0.75968  0.37863  1.0000
  H   H1315     1.0  0.90699  0.71196  0.33333  1.0000
  H   H1316     1.0  0.90699  0.95470  0.33333  1.0000
  H   H1317     1.0  0.75968  0.95470  0.33333  1.0000
  H   H1318     1.0  0.71196  0.66667  0.42634  1.0000
  H   H1319     1.0  0.95470  0.66667  0.42634  1.0000
  H   H1320     1.0  0.95470  0.66667  0.57366  1.0000
  H   H1321     1.0  0.75968  0.83333  0.54530  1.0000
  H   H1322     1.0  0.90699  0.83333  0.54530  1.0000
  H   H1323     1.0  0.90699  0.83333  0.45470  1.0000
  H   H1324     1.0  0.71196  0.92634  0.50000  1.0000
  H   H1325     1.0  0.71196  0.74032  0.50000  1.0000
  H   H1326     1.0  0.95470  0.74032  0.50000  1.0000
  H   H1327     1.0  0.95470  0.92634  0.50000  1.0000
  H   H1328     1.0  0.66667  0.87863  0.59301  1.0000
  H   H1329     1.0  0.66667  0.87863  0.40699  1.0000
  H   H1330     1.0  0.66667  0.78804  0.40699  1.0000
  H   H1331     1.0  0.66667  0.78804  0.59301  1.0000
  H   H1332     1.0  0.66667  0.92634  0.45470  1.0000
  H   H1333     1.0  0.66667  0.74032  0.45470  1.0000
  H   H1334     1.0  0.66667  0.74032  0.54530  1.0000
  H   H1335     1.0  0.66667  0.92634  0.54530  1.0000
  H   H1336     1.0  0.75968  0.87863  0.50000  1.0000
  H   H1337     1.0  0.90699  0.87863  0.50000  1.0000
  H   H1338     1.0  0.90699  0.78804  0.50000  1.0000
  H   H1339     1.0  0.75968  0.78804  0.50000  1.0000
  H   H1340     1.0  0.71196  0.83333  0.59301  1.0000
  H   H1341     1.0  0.95470  0.83333  0.59301  1.0000
  H   H1342     1.0  0.95470  0.83333  0.40699  1.0000
  H   H1343     1.0  0.92634  0.66667  0.54530  1.0000
  H   H1344     1.0  0.74032  0.66667  0.45470  1.0000
  H   H1345     1.0  0.92634  0.66667  0.45470  1.0000
  H   H1346     1.0  0.87863  0.75968  0.50000  1.0000
  H   H1347     1.0  0.87863  0.90699  0.50000  1.0000
  H   H1348     1.0  0.78804  0.90699  0.50000  1.0000
  H   H1349     1.0  0.78804  0.75968  0.50000  1.0000
  H   H1350     1.0  0.83333  0.71196  0.59301  1.0000
  H   H1351     1.0  0.83333  0.71196  0.40699  1.0000
  H   H1352     1.0  0.83333  0.95470  0.59301  1.0000
  H   H1353     1.0  0.83333  0.75968  0.45470  1.0000
  H   H1354     1.0  0.83333  0.90699  0.54530  1.0000
  H   H1355     1.0  0.83333  0.75968  0.54530  1.0000
  H   H1356     1.0  0.92634  0.71196  0.50000  1.0000
  H   H1357     1.0  0.74032  0.71196  0.50000  1.0000
  H   H1358     1.0  0.74032  0.95470  0.50000  1.0000
  H   H1359     1.0  0.92634  0.95470  0.50000  1.0000
  H   H1360     1.0  0.87863  0.66667  0.40699  1.0000
  H   H1361     1.0  0.87863  0.66667  0.59301  1.0000
  H   H1362     1.0  0.78804  0.66667  0.40699  1.0000
  H   H1363     1.0  0.92634  0.83333  0.37863  1.0000
  H   H1364     1.0  0.74032  0.83333  0.62137  1.0000
  H   H1365     1.0  0.92634  0.83333  0.62137  1.0000
  H   H1366     1.0  0.87863  0.92634  0.33333  1.0000
  H   H1367     1.0  0.87863  0.74032  0.33333  1.0000
  H   H1368     1.0  0.78804  0.92634  0.33333  1.0000
  H   H1369     1.0  0.83333  0.87863  0.57366  1.0000
  H   H1370     1.0  0.83333  0.78804  0.57366  1.0000
  H   H1371     1.0  0.83333  0.78804  0.42634  1.0000
  H   H1372     1.0  0.83333  0.92634  0.62137  1.0000
  H   H1373     1.0  0.83333  0.74032  0.62137  1.0000
  H   H1374     1.0  0.83333  0.74032  0.37863  1.0000
  H   H1375     1.0  0.92634  0.87863  0.33333  1.0000
  H   H1376     1.0  0.74032  0.87863  0.33333  1.0000
  H   H1377     1.0  0.92634  0.78804  0.33333  1.0000
  H   H1378     1.0  0.87863  0.83333  0.57366  1.0000
  H   H1379     1.0  0.87863  0.83333  0.42634  1.0000
  H   H1380     1.0  0.78804  0.83333  0.57366  1.0000
  Zr  Zr433     1.0  0.03997  0.00000  0.66667  1.0000
  Zr  Zr434     1.0  0.29338  0.00000  0.66667  1.0000
  Zr  Zr435     1.0  0.00000  0.03997  0.66667  1.0000
  Zr  Zr436     1.0  0.00000  0.29338  0.66667  1.0000
  Zr  Zr437     1.0  0.00000  0.00000  0.70663  1.0000
  Zr  Zr438     1.0  0.00000  0.00000  0.96005  1.0000
  Zr  Zr439     1.0  0.03997  0.16667  0.83333  1.0000
  Zr  Zr440     1.0  0.29338  0.16667  0.83333  1.0000
  Zr  Zr441     1.0  0.00000  0.20663  0.83333  1.0000
  Zr  Zr442     1.0  0.00000  0.12670  0.83333  1.0000
  Zr  Zr443     1.0  0.00000  0.16667  0.87330  1.0000
  Zr  Zr444     1.0  0.00000  0.16667  0.79337  1.0000
  Zr  Zr445     1.0  0.20663  0.00000  0.83333  1.0000
  Zr  Zr446     1.0  0.12670  0.00000  0.83333  1.0000
  Zr  Zr447     1.0  0.16667  0.03997  0.83333  1.0000
  Zr  Zr448     1.0  0.16667  0.29338  0.83333  1.0000
  Zr  Zr449     1.0  0.16667  0.00000  0.87330  1.0000
  Zr  Zr450     1.0  0.16667  0.00000  0.79337  1.0000
  Zr  Zr451     1.0  0.20663  0.16667  0.66667  1.0000
  Zr  Zr452     1.0  0.12670  0.16667  0.66667  1.0000
  Zr  Zr453     1.0  0.16667  0.20663  0.66667  1.0000
  Zr  Zr454     1.0  0.16667  0.12670  0.66667  1.0000
  Zr  Zr455     1.0  0.16667  0.16667  0.70663  1.0000
  Zr  Zr456     1.0  0.16667  0.16667  0.96005  1.0000
  O   O2305     1.0  0.05683  0.00000  0.69844  1.0000
  O   O2306     1.0  0.27652  0.00000  0.69844  1.0000
  O   O2307     1.0  0.27652  0.00000  0.96824  1.0000
  O   O2308     1.0  0.05683  0.00000  0.96824  1.0000
  O   O2309     1.0  0.03177  0.05683  0.66667  1.0000
  O   O2310     1.0  0.03177  0.27652  0.66667  1.0000
  O   O2311     1.0  0.30158  0.27652  0.66667  1.0000
  O   O2312     1.0  0.30158  0.05683  0.66667  1.0000
  O   O2313     1.0  0.00000  0.03177  0.72349  1.0000
  O   O2314     1.0  0.00000  0.03177  0.94319  1.0000
  O   O2315     1.0  0.00000  0.30158  0.94319  1.0000
  O   O2316     1.0  0.00000  0.30158  0.72349  1.0000
  O   O2317     1.0  0.00000  0.05683  0.96824  1.0000
  O   O2318     1.0  0.00000  0.27652  0.96824  1.0000
  O   O2319     1.0  0.00000  0.27652  0.69844  1.0000
  O   O2320     1.0  0.00000  0.05683  0.69844  1.0000
  O   O2321     1.0  0.05683  0.03177  0.66667  1.0000
  O   O2322     1.0  0.27652  0.03177  0.66667  1.0000
  O   O2323     1.0  0.27652  0.30158  0.66667  1.0000
  O   O2324     1.0  0.05683  0.30158  0.66667  1.0000
  O   O2325     1.0  0.03177  0.00000  0.94319  1.0000
  O   O2326     1.0  0.03177  0.00000  0.72349  1.0000
  O   O2327     1.0  0.30158  0.00000  0.72349  1.0000
  O   O2328     1.0  0.30158  0.00000  0.94319  1.0000
  O   O2329     1.0  0.05683  0.16667  0.86510  1.0000
  O   O2330     1.0  0.27652  0.16667  0.86510  1.0000
  O   O2331     1.0  0.27652  0.16667  0.80156  1.0000
  O   O2332     1.0  0.05683  0.16667  0.80156  1.0000
  O   O2333     1.0  0.03177  0.22349  0.83333  1.0000
  O   O2334     1.0  0.03177  0.10984  0.83333  1.0000
  O   O2335     1.0  0.30158  0.10984  0.83333  1.0000
  O   O2336     1.0  0.30158  0.22349  0.83333  1.0000
  O   O2337     1.0  0.00000  0.19844  0.89016  1.0000
  O   O2338     1.0  0.00000  0.19844  0.77651  1.0000
  O   O2339     1.0  0.00000  0.13490  0.77651  1.0000
  O   O2340     1.0  0.00000  0.13490  0.89016  1.0000
  O   O2341     1.0  0.00000  0.22349  0.80156  1.0000
  O   O2342     1.0  0.00000  0.10984  0.80156  1.0000
  O   O2343     1.0  0.00000  0.10984  0.86510  1.0000
  O   O2344     1.0  0.00000  0.22349  0.86510  1.0000
  O   O2345     1.0  0.05683  0.19844  0.83333  1.0000
  O   O2346     1.0  0.27652  0.19844  0.83333  1.0000
  O   O2347     1.0  0.27652  0.13490  0.83333  1.0000
  O   O2348     1.0  0.05683  0.13490  0.83333  1.0000
  O   O2349     1.0  0.03177  0.16667  0.77651  1.0000
  O   O2350     1.0  0.03177  0.16667  0.89016  1.0000
  O   O2351     1.0  0.30158  0.16667  0.89016  1.0000
  O   O2352     1.0  0.30158  0.16667  0.77651  1.0000
  O   O2353     1.0  0.22349  0.00000  0.86510  1.0000
  O   O2354     1.0  0.10984  0.00000  0.86510  1.0000
  O   O2355     1.0  0.10984  0.00000  0.80156  1.0000
  O   O2356     1.0  0.22349  0.00000  0.80156  1.0000
  O   O2357     1.0  0.19844  0.05683  0.83333  1.0000
  O   O2358     1.0  0.19844  0.27652  0.83333  1.0000
  O   O2359     1.0  0.13490  0.27652  0.83333  1.0000
  O   O2360     1.0  0.13490  0.05683  0.83333  1.0000
  O   O2361     1.0  0.16667  0.03177  0.89016  1.0000
  O   O2362     1.0  0.16667  0.03177  0.77651  1.0000
  O   O2363     1.0  0.16667  0.30158  0.77651  1.0000
  O   O2364     1.0  0.16667  0.30158  0.89016  1.0000
  O   O2365     1.0  0.16667  0.05683  0.80156  1.0000
  O   O2366     1.0  0.16667  0.27652  0.80156  1.0000
  O   O2367     1.0  0.16667  0.27652  0.86510  1.0000
  O   O2368     1.0  0.16667  0.05683  0.86510  1.0000
  O   O2369     1.0  0.22349  0.03177  0.83333  1.0000
  O   O2370     1.0  0.10984  0.03177  0.83333  1.0000
  O   O2371     1.0  0.10984  0.30158  0.83333  1.0000
  O   O2372     1.0  0.22349  0.30158  0.83333  1.0000
  O   O2373     1.0  0.19844  0.00000  0.77651  1.0000
  O   O2374     1.0  0.19844  0.00000  0.89016  1.0000
  O   O2375     1.0  0.13490  0.00000  0.89016  1.0000
  O   O2376     1.0  0.13490  0.00000  0.77651  1.0000
  O   O2377     1.0  0.22349  0.16667  0.69844  1.0000
  O   O2378     1.0  0.10984  0.16667  0.69844  1.0000
  O   O2379     1.0  0.10984  0.16667  0.96824  1.0000
  O   O2380     1.0  0.22349  0.16667  0.96824  1.0000
  O   O2381     1.0  0.19844  0.22349  0.66667  1.0000
  O   O2382     1.0  0.19844  0.10984  0.66667  1.0000
  O   O2383     1.0  0.13490  0.10984  0.66667  1.0000
  O   O2384     1.0  0.13490  0.22349  0.66667  1.0000
  O   O2385     1.0  0.16667  0.19844  0.72349  1.0000
  O   O2386     1.0  0.16667  0.19844  0.94319  1.0000
  O   O2387     1.0  0.16667  0.13490  0.94319  1.0000
  O   O2388     1.0  0.16667  0.13490  0.72349  1.0000
  O   O2389     1.0  0.16667  0.22349  0.96824  1.0000
  O   O2390     1.0  0.16667  0.10984  0.96824  1.0000
  O   O2391     1.0  0.16667  0.10984  0.69844  1.0000
  O   O2392     1.0  0.16667  0.22349  0.69844  1.0000
  O   O2393     1.0  0.22349  0.19844  0.66667  1.0000
  O   O2394     1.0  0.10984  0.19844  0.66667  1.0000
  O   O2395     1.0  0.10984  0.13490  0.66667  1.0000
  O   O2396     1.0  0.22349  0.13490  0.66667  1.0000
  O   O2397     1.0  0.19844  0.16667  0.94319  1.0000
  O   O2398     1.0  0.19844  0.16667  0.72349  1.0000
  O   O2399     1.0  0.13490  0.16667  0.72349  1.0000
  O   O2400     1.0  0.13490  0.16667  0.94319  1.0000
  O   O2401     1.0  0.01870  0.31464  0.98130  1.0000
  O   O2402     1.0  0.31464  0.01870  0.98130  1.0000
  O   O2403     1.0  0.31464  0.31464  0.68536  1.0000
  O   O2404     1.0  0.01870  0.01870  0.68536  1.0000
  O   O2405     1.0  0.31464  0.01870  0.68536  1.0000
  O   O2406     1.0  0.01870  0.31464  0.68536  1.0000
  O   O2407     1.0  0.31464  0.31464  0.98130  1.0000
  O   O2408     1.0  0.01870  0.01870  0.98130  1.0000
  O   O2409     1.0  0.01870  0.14797  0.81464  1.0000
  O   O2410     1.0  0.31464  0.18536  0.81464  1.0000
  O   O2411     1.0  0.31464  0.14797  0.85203  1.0000
  O   O2412     1.0  0.01870  0.18536  0.85203  1.0000
  O   O2413     1.0  0.31464  0.18536  0.85203  1.0000
  O   O2414     1.0  0.01870  0.14797  0.85203  1.0000
  O   O2415     1.0  0.31464  0.14797  0.81464  1.0000
  O   O2416     1.0  0.01870  0.18536  0.81464  1.0000
  O   O2417     1.0  0.18536  0.31464  0.81464  1.0000
  O   O2418     1.0  0.14797  0.01870  0.81464  1.0000
  O   O2419     1.0  0.14797  0.31464  0.85203  1.0000
  O   O2420     1.0  0.18536  0.01870  0.85203  1.0000
  O   O2421     1.0  0.14797  0.01870  0.85203  1.0000
  O   O2422     1.0  0.18536  0.31464  0.85203  1.0000
  O   O2423     1.0  0.14797  0.31464  0.81464  1.0000
  O   O2424     1.0  0.18536  0.01870  0.81464  1.0000
  O   O2425     1.0  0.18536  0.14797  0.98130  1.0000
  O   O2426     1.0  0.14797  0.18536  0.98130  1.0000
  O   O2427     1.0  0.14797  0.14797  0.68536  1.0000
  O   O2428     1.0  0.18536  0.18536  0.68536  1.0000
  O   O2429     1.0  0.14797  0.18536  0.68536  1.0000
  O   O2430     1.0  0.18536  0.14797  0.68536  1.0000
  O   O2431     1.0  0.14797  0.14797  0.98130  1.0000
  O   O2432     1.0  0.18536  0.18536  0.98130  1.0000
  C   C2935     1.0  0.05121  0.00000  0.94881  1.0000
  C   C2936     1.0  0.28214  0.00000  0.94881  1.0000
  C   C2937     1.0  0.28214  0.00000  0.71787  1.0000
  C   C2938     1.0  0.05121  0.00000  0.71787  1.0000
  C   C2939     1.0  0.28214  0.05121  0.66667  1.0000
  C   C2940     1.0  0.28214  0.28214  0.66667  1.0000
  C   C2941     1.0  0.05121  0.28214  0.66667  1.0000
  C   C2942     1.0  0.05121  0.05121  0.66667  1.0000
  C   C2943     1.0  0.00000  0.28214  0.71787  1.0000
  C   C2944     1.0  0.00000  0.28214  0.94881  1.0000
  C   C2945     1.0  0.00000  0.05121  0.94881  1.0000
  C   C2946     1.0  0.00000  0.05121  0.71787  1.0000
  C   C2947     1.0  0.05121  0.16667  0.78214  1.0000
  C   C2948     1.0  0.28214  0.16667  0.78214  1.0000
  C   C2949     1.0  0.28214  0.16667  0.88454  1.0000
  C   C2950     1.0  0.05121  0.16667  0.88454  1.0000
  C   C2951     1.0  0.28214  0.21787  0.83333  1.0000
  C   C2952     1.0  0.28214  0.11548  0.83333  1.0000
  C   C2953     1.0  0.05121  0.11548  0.83333  1.0000
  C   C2954     1.0  0.05121  0.21787  0.83333  1.0000
  C   C2955     1.0  0.00000  0.11548  0.88454  1.0000
  C   C2956     1.0  0.00000  0.11548  0.78214  1.0000
  C   C2957     1.0  0.00000  0.21787  0.78214  1.0000
  C   C2958     1.0  0.00000  0.21787  0.88454  1.0000
  C   C2959     1.0  0.21787  0.00000  0.78214  1.0000
  C   C2960     1.0  0.11548  0.00000  0.78214  1.0000
  C   C2961     1.0  0.11548  0.00000  0.88454  1.0000
  C   C2962     1.0  0.21787  0.00000  0.88454  1.0000
  C   C2963     1.0  0.11548  0.05121  0.83333  1.0000
  C   C2964     1.0  0.11548  0.28214  0.83333  1.0000
  C   C2965     1.0  0.21787  0.28214  0.83333  1.0000
  C   C2966     1.0  0.21787  0.05121  0.83333  1.0000
  C   C2967     1.0  0.16667  0.28214  0.88454  1.0000
  C   C2968     1.0  0.16667  0.28214  0.78214  1.0000
  C   C2969     1.0  0.16667  0.05121  0.78214  1.0000
  C   C2970     1.0  0.16667  0.05121  0.88454  1.0000
  C   C2971     1.0  0.21787  0.16667  0.94881  1.0000
  C   C2972     1.0  0.11548  0.16667  0.94881  1.0000
  C   C2973     1.0  0.11548  0.16667  0.71787  1.0000
  C   C2974     1.0  0.21787  0.16667  0.71787  1.0000
  C   C2975     1.0  0.11548  0.21787  0.66667  1.0000
  C   C2976     1.0  0.11548  0.11548  0.66667  1.0000
  C   C2977     1.0  0.21787  0.11548  0.66667  1.0000
  C   C2978     1.0  0.21787  0.21787  0.66667  1.0000
  C   C2979     1.0  0.16667  0.11548  0.71787  1.0000
  C   C2980     1.0  0.16667  0.11548  0.94881  1.0000
  C   C2981     1.0  0.16667  0.21787  0.94881  1.0000
  C   C2982     1.0  0.16667  0.21787  0.71787  1.0000
  C   C2983     1.0  0.06834  0.00000  0.73501  1.0000
  C   C2984     1.0  0.26501  0.00000  0.93167  1.0000
  C   C2985     1.0  0.06834  0.00000  0.93167  1.0000
  C   C2986     1.0  0.06834  0.06834  0.66667  1.0000
  C   C2987     1.0  0.06834  0.26501  0.66667  1.0000
  C   C2988     1.0  0.26501  0.26501  0.66667  1.0000
  C   C2989     1.0  0.26501  0.06834  0.66667  1.0000
  C   C2990     1.0  0.00000  0.26501  0.93167  1.0000
  C   C2991     1.0  0.00000  0.26501  0.73501  1.0000
  C   C2992     1.0  0.06834  0.16667  0.90167  1.0000
  C   C2993     1.0  0.26501  0.16667  0.90167  1.0000
  C   C2994     1.0  0.26501  0.16667  0.76501  1.0000
  C   C2995     1.0  0.06834  0.16667  0.76501  1.0000
  C   C2996     1.0  0.06834  0.23501  0.83333  1.0000
  C   C2997     1.0  0.06834  0.09834  0.83333  1.0000
  C   C2998     1.0  0.26501  0.09834  0.83333  1.0000
  C   C2999     1.0  0.26501  0.23501  0.83333  1.0000
  C   C3000     1.0  0.00000  0.23501  0.90167  1.0000
  C   C3001     1.0  0.00000  0.23501  0.76501  1.0000
  C   C3002     1.0  0.23501  0.00000  0.90167  1.0000
  C   C3003     1.0  0.09834  0.00000  0.90167  1.0000
  C   C3004     1.0  0.09834  0.00000  0.76501  1.0000
  C   C3005     1.0  0.23501  0.06834  0.83333  1.0000
  C   C3006     1.0  0.23501  0.26501  0.83333  1.0000
  C   C3007     1.0  0.09834  0.26501  0.83333  1.0000
  C   C3008     1.0  0.09834  0.06834  0.83333  1.0000
  C   C3009     1.0  0.16667  0.06834  0.90167  1.0000
  C   C3010     1.0  0.16667  0.06834  0.76501  1.0000
  C   C3011     1.0  0.16667  0.26501  0.76501  1.0000
  C   C3012     1.0  0.16667  0.26501  0.90167  1.0000
  C   C3013     1.0  0.23501  0.16667  0.73501  1.0000
  C   C3014     1.0  0.09834  0.16667  0.73501  1.0000
  C   C3015     1.0  0.09834  0.16667  0.93167  1.0000
  C   C3016     1.0  0.23501  0.16667  0.93167  1.0000
  C   C3017     1.0  0.23501  0.23501  0.66667  1.0000
  C   C3018     1.0  0.23501  0.09834  0.66667  1.0000
  C   C3019     1.0  0.09834  0.09834  0.66667  1.0000
  C   C3020     1.0  0.09834  0.23501  0.66667  1.0000
  C   C3021     1.0  0.16667  0.23501  0.73501  1.0000
  C   C3022     1.0  0.16667  0.23501  0.93167  1.0000
  C   C3023     1.0  0.16667  0.09834  0.93167  1.0000
  C   C3024     1.0  0.16667  0.09834  0.73501  1.0000
  C   C3025     1.0  0.08916  0.00000  0.72813  1.0000
  C   C3026     1.0  0.24417  0.00000  0.93853  1.0000
  C   C3027     1.0  0.08916  0.00000  0.93853  1.0000
  C   C3028     1.0  0.06147  0.08916  0.66667  1.0000
  C   C3029     1.0  0.06147  0.24417  0.66667  1.0000
  C   C3030     1.0  0.27187  0.24417  0.66667  1.0000
  C   C3031     1.0  0.27187  0.08916  0.66667  1.0000
  C   C3032     1.0  0.00000  0.27187  0.91084  1.0000
  C   C3033     1.0  0.00000  0.27187  0.75583  1.0000
  C   C3034     1.0  0.00000  0.24417  0.93853  1.0000
  C   C3035     1.0  0.00000  0.24417  0.72813  1.0000
  C   C3036     1.0  0.08916  0.06147  0.66667  1.0000
  C   C3037     1.0  0.24417  0.06147  0.66667  1.0000
  C   C3038     1.0  0.24417  0.27187  0.66667  1.0000
  C   C3039     1.0  0.08916  0.27187  0.66667  1.0000
  C   C3040     1.0  0.06147  0.00000  0.91084  1.0000
  C   C3041     1.0  0.06147  0.00000  0.75583  1.0000
  C   C3042     1.0  0.27187  0.00000  0.91084  1.0000
  C   C3043     1.0  0.08916  0.16667  0.89480  1.0000
  C   C3044     1.0  0.24417  0.16667  0.89480  1.0000
  C   C3045     1.0  0.24417  0.16667  0.77187  1.0000
  C   C3046     1.0  0.08916  0.16667  0.77187  1.0000
  C   C3047     1.0  0.06147  0.25585  0.83333  1.0000
  C   C3048     1.0  0.06147  0.07750  0.83333  1.0000
  C   C3049     1.0  0.27187  0.07750  0.83333  1.0000
  C   C3050     1.0  0.27187  0.25585  0.83333  1.0000
  C   C3051     1.0  0.00000  0.22813  0.92251  1.0000
  C   C3052     1.0  0.00000  0.22813  0.74417  1.0000
  C   C3053     1.0  0.00000  0.25585  0.77187  1.0000
  C   C3054     1.0  0.00000  0.25585  0.89480  1.0000
  C   C3055     1.0  0.08916  0.22813  0.83333  1.0000
  C   C3056     1.0  0.24417  0.22813  0.83333  1.0000
  C   C3057     1.0  0.24417  0.10520  0.83333  1.0000
  C   C3058     1.0  0.08916  0.10520  0.83333  1.0000
  C   C3059     1.0  0.06147  0.16667  0.74417  1.0000
  C   C3060     1.0  0.06147  0.16667  0.92251  1.0000
  C   C3061     1.0  0.27187  0.16667  0.92251  1.0000
  C   C3062     1.0  0.27187  0.16667  0.74417  1.0000
  C   C3063     1.0  0.25585  0.00000  0.89480  1.0000
  C   C3064     1.0  0.07750  0.00000  0.89480  1.0000
  C   C3065     1.0  0.07750  0.00000  0.77187  1.0000
  C   C3066     1.0  0.22813  0.08916  0.83333  1.0000
  C   C3067     1.0  0.22813  0.24417  0.83333  1.0000
  C   C3068     1.0  0.10520  0.24417  0.83333  1.0000
  C   C3069     1.0  0.10520  0.08916  0.83333  1.0000
  C   C3070     1.0  0.16667  0.06147  0.92251  1.0000
  C   C3071     1.0  0.16667  0.06147  0.74417  1.0000
  C   C3072     1.0  0.16667  0.27187  0.74417  1.0000
  C   C3073     1.0  0.16667  0.27187  0.92251  1.0000
  C   C3074     1.0  0.16667  0.08916  0.77187  1.0000
  C   C3075     1.0  0.16667  0.24417  0.77187  1.0000
  C   C3076     1.0  0.16667  0.24417  0.89480  1.0000
  C   C3077     1.0  0.16667  0.08916  0.89480  1.0000
  C   C3078     1.0  0.25585  0.06147  0.83333  1.0000
  C   C3079     1.0  0.07750  0.06147  0.83333  1.0000
  C   C3080     1.0  0.07750  0.27187  0.83333  1.0000
  C   C3081     1.0  0.25585  0.27187  0.83333  1.0000
  C   C3082     1.0  0.22813  0.00000  0.92251  1.0000
  C   C3083     1.0  0.10520  0.00000  0.92251  1.0000
  C   C3084     1.0  0.10520  0.00000  0.74417  1.0000
  C   C3085     1.0  0.25585  0.16667  0.72813  1.0000
  C   C3086     1.0  0.07750  0.16667  0.72813  1.0000
  C   C3087     1.0  0.07750  0.16667  0.93853  1.0000
  C   C3088     1.0  0.25585  0.16667  0.93853  1.0000
  C   C3089     1.0  0.22813  0.25585  0.66667  1.0000
  C   C3090     1.0  0.22813  0.07750  0.66667  1.0000
  C   C3091     1.0  0.10520  0.07750  0.66667  1.0000
  C   C3092     1.0  0.10520  0.25585  0.66667  1.0000
  C   C3093     1.0  0.16667  0.22813  0.75583  1.0000
  C   C3094     1.0  0.16667  0.22813  0.91084  1.0000
  C   C3095     1.0  0.16667  0.10520  0.91084  1.0000
  C   C3096     1.0  0.16667  0.10520  0.75583  1.0000
  C   C3097     1.0  0.16667  0.25585  0.93853  1.0000
  C   C3098     1.0  0.16667  0.07750  0.93853  1.0000
  C   C3099     1.0  0.16667  0.07750  0.72813  1.0000
  C   C3100     1.0  0.16667  0.25585  0.72813  1.0000
  C   C3101     1.0  0.25585  0.22813  0.66667  1.0000
  C   C3102     1.0  0.07750  0.22813  0.66667  1.0000
  C   C3103     1.0  0.07750  0.10520  0.66667  1.0000
  C   C3104     1.0  0.25585  0.10520  0.66667  1.0000
  C   C3105     1.0  0.22813  0.16667  0.91084  1.0000
  C   C3106     1.0  0.22813  0.16667  0.75583  1.0000
  C   C3107     1.0  0.10520  0.16667  0.75583  1.0000
  C   C3108     1.0  0.10520  0.16667  0.91084  1.0000
  H   H1381     1.0  0.09301  0.00000  0.71196  1.0000
  H   H1382     1.0  0.24032  0.00000  0.95470  1.0000
  H   H1383     1.0  0.09301  0.00000  0.95470  1.0000
  H   H1384     1.0  0.04530  0.09301  0.66667  1.0000
  H   H1385     1.0  0.04530  0.24032  0.66667  1.0000
  H   H1386     1.0  0.28804  0.24032  0.66667  1.0000
  H   H1387     1.0  0.28804  0.09301  0.66667  1.0000
  H   H1388     1.0  0.00000  0.28804  0.90699  1.0000
  H   H1389     1.0  0.00000  0.28804  0.75968  1.0000
  H   H1390     1.0  0.00000  0.24032  0.95470  1.0000
  H   H1391     1.0  0.00000  0.24032  0.71196  1.0000
  H   H1392     1.0  0.09301  0.04530  0.66667  1.0000
  H   H1393     1.0  0.24032  0.04530  0.66667  1.0000
  H   H1394     1.0  0.24032  0.28804  0.66667  1.0000
  H   H1395     1.0  0.09301  0.28804  0.66667  1.0000
  H   H1396     1.0  0.04530  0.00000  0.90699  1.0000
  H   H1397     1.0  0.04530  0.00000  0.75968  1.0000
  H   H1398     1.0  0.28804  0.00000  0.90699  1.0000
  H   H1399     1.0  0.09301  0.16667  0.87863  1.0000
  H   H1400     1.0  0.24032  0.16667  0.87863  1.0000
  H   H1401     1.0  0.24032  0.16667  0.78804  1.0000
  H   H1402     1.0  0.09301  0.16667  0.78804  1.0000
  H   H1403     1.0  0.04530  0.25968  0.83333  1.0000
  H   H1404     1.0  0.04530  0.07366  0.83333  1.0000
  H   H1405     1.0  0.28804  0.07366  0.83333  1.0000
  H   H1406     1.0  0.28804  0.25968  0.83333  1.0000
  H   H1407     1.0  0.00000  0.21196  0.92634  1.0000
  H   H1408     1.0  0.00000  0.21196  0.74032  1.0000
  H   H1409     1.0  0.00000  0.25968  0.78804  1.0000
  H   H1410     1.0  0.00000  0.25968  0.87863  1.0000
  H   H1411     1.0  0.09301  0.21196  0.83333  1.0000
  H   H1412     1.0  0.24032  0.21196  0.83333  1.0000
  H   H1413     1.0  0.24032  0.12137  0.83333  1.0000
  H   H1414     1.0  0.09301  0.12137  0.83333  1.0000
  H   H1415     1.0  0.04530  0.16667  0.74032  1.0000
  H   H1416     1.0  0.04530  0.16667  0.92634  1.0000
  H   H1417     1.0  0.28804  0.16667  0.92634  1.0000
  H   H1418     1.0  0.28804  0.16667  0.74032  1.0000
  H   H1419     1.0  0.25968  0.00000  0.87863  1.0000
  H   H1420     1.0  0.07366  0.00000  0.87863  1.0000
  H   H1421     1.0  0.07366  0.00000  0.78804  1.0000
  H   H1422     1.0  0.21196  0.09301  0.83333  1.0000
  H   H1423     1.0  0.21196  0.24032  0.83333  1.0000
  H   H1424     1.0  0.12137  0.24032  0.83333  1.0000
  H   H1425     1.0  0.12137  0.09301  0.83333  1.0000
  H   H1426     1.0  0.16667  0.04530  0.92634  1.0000
  H   H1427     1.0  0.16667  0.04530  0.74032  1.0000
  H   H1428     1.0  0.16667  0.28804  0.74032  1.0000
  H   H1429     1.0  0.16667  0.28804  0.92634  1.0000
  H   H1430     1.0  0.16667  0.09301  0.78804  1.0000
  H   H1431     1.0  0.16667  0.24032  0.78804  1.0000
  H   H1432     1.0  0.16667  0.24032  0.87863  1.0000
  H   H1433     1.0  0.16667  0.09301  0.87863  1.0000
  H   H1434     1.0  0.25968  0.04530  0.83333  1.0000
  H   H1435     1.0  0.07366  0.04530  0.83333  1.0000
  H   H1436     1.0  0.07366  0.28804  0.83333  1.0000
  H   H1437     1.0  0.25968  0.28804  0.83333  1.0000
  H   H1438     1.0  0.21196  0.00000  0.92634  1.0000
  H   H1439     1.0  0.12137  0.00000  0.92634  1.0000
  H   H1440     1.0  0.12137  0.00000  0.74032  1.0000
  H   H1441     1.0  0.25968  0.16667  0.71196  1.0000
  H   H1442     1.0  0.07366  0.16667  0.71196  1.0000
  H   H1443     1.0  0.07366  0.16667  0.95470  1.0000
  H   H1444     1.0  0.25968  0.16667  0.95470  1.0000
  H   H1445     1.0  0.21196  0.25968  0.66667  1.0000
  H   H1446     1.0  0.21196  0.07366  0.66667  1.0000
  H   H1447     1.0  0.12137  0.07366  0.66667  1.0000
  H   H1448     1.0  0.12137  0.25968  0.66667  1.0000
  H   H1449     1.0  0.16667  0.21196  0.75968  1.0000
  H   H1450     1.0  0.16667  0.21196  0.90699  1.0000
  H   H1451     1.0  0.16667  0.12137  0.90699  1.0000
  H   H1452     1.0  0.16667  0.12137  0.75968  1.0000
  H   H1453     1.0  0.16667  0.25968  0.95470  1.0000
  H   H1454     1.0  0.16667  0.07366  0.95470  1.0000
  H   H1455     1.0  0.16667  0.07366  0.71196  1.0000
  H   H1456     1.0  0.16667  0.25968  0.71196  1.0000
  H   H1457     1.0  0.25968  0.21196  0.66667  1.0000
  H   H1458     1.0  0.07366  0.21196  0.66667  1.0000
  H   H1459     1.0  0.07366  0.12137  0.66667  1.0000
  H   H1460     1.0  0.25968  0.12137  0.66667  1.0000
  H   H1461     1.0  0.21196  0.16667  0.90699  1.0000
  H   H1462     1.0  0.21196  0.16667  0.75968  1.0000
  H   H1463     1.0  0.12137  0.16667  0.75968  1.0000
  H   H1464     1.0  0.12137  0.16667  0.90699  1.0000
  Zr  Zr457     1.0  0.03997  0.33333  0.66667  1.0000
  Zr  Zr458     1.0  0.29338  0.33333  0.66667  1.0000
  Zr  Zr459     1.0  0.00000  0.37330  0.66667  1.0000
  Zr  Zr460     1.0  0.00000  0.62671  0.66667  1.0000
  Zr  Zr461     1.0  0.00000  0.33333  0.70663  1.0000
  Zr  Zr462     1.0  0.00000  0.33333  0.96005  1.0000
  Zr  Zr463     1.0  0.03997  0.50000  0.83333  1.0000
  Zr  Zr464     1.0  0.29338  0.50000  0.83333  1.0000
  Zr  Zr465     1.0  0.00000  0.53997  0.83333  1.0000
  Zr  Zr466     1.0  0.00000  0.46003  0.83333  1.0000
  Zr  Zr467     1.0  0.00000  0.50000  0.87330  1.0000
  Zr  Zr468     1.0  0.00000  0.50000  0.79337  1.0000
  Zr  Zr469     1.0  0.20663  0.33333  0.83333  1.0000
  Zr  Zr470     1.0  0.12670  0.33333  0.83333  1.0000
  Zr  Zr471     1.0  0.16667  0.37330  0.83333  1.0000
  Zr  Zr472     1.0  0.16667  0.62671  0.83333  1.0000
  Zr  Zr473     1.0  0.16667  0.33333  0.87330  1.0000
  Zr  Zr474     1.0  0.16667  0.33333  0.79337  1.0000
  Zr  Zr475     1.0  0.20663  0.50000  0.66667  1.0000
  Zr  Zr476     1.0  0.12670  0.50000  0.66667  1.0000
  Zr  Zr477     1.0  0.16667  0.53997  0.66667  1.0000
  Zr  Zr478     1.0  0.16667  0.46003  0.66667  1.0000
  Zr  Zr479     1.0  0.16667  0.50000  0.70663  1.0000
  Zr  Zr480     1.0  0.16667  0.50000  0.96005  1.0000
  O   O2433     1.0  0.05683  0.33333  0.69844  1.0000
  O   O2434     1.0  0.27652  0.33333  0.69844  1.0000
  O   O2435     1.0  0.27652  0.33333  0.96824  1.0000
  O   O2436     1.0  0.05683  0.33333  0.96824  1.0000
  O   O2437     1.0  0.03177  0.39016  0.66667  1.0000
  O   O2438     1.0  0.03177  0.60986  0.66667  1.0000
  O   O2439     1.0  0.30158  0.60986  0.66667  1.0000
  O   O2440     1.0  0.30158  0.39016  0.66667  1.0000
  O   O2441     1.0  0.00000  0.36510  0.72349  1.0000
  O   O2442     1.0  0.00000  0.36510  0.94319  1.0000
  O   O2443     1.0  0.00000  0.63491  0.94319  1.0000
  O   O2444     1.0  0.00000  0.63491  0.72349  1.0000
  O   O2445     1.0  0.00000  0.39016  0.96824  1.0000
  O   O2446     1.0  0.00000  0.60986  0.96824  1.0000
  O   O2447     1.0  0.00000  0.60986  0.69844  1.0000
  O   O2448     1.0  0.00000  0.39016  0.69844  1.0000
  O   O2449     1.0  0.05683  0.36510  0.66667  1.0000
  O   O2450     1.0  0.27652  0.36510  0.66667  1.0000
  O   O2451     1.0  0.27652  0.63491  0.66667  1.0000
  O   O2452     1.0  0.05683  0.63491  0.66667  1.0000
  O   O2453     1.0  0.03177  0.33333  0.94319  1.0000
  O   O2454     1.0  0.03177  0.33333  0.72349  1.0000
  O   O2455     1.0  0.30158  0.33333  0.72349  1.0000
  O   O2456     1.0  0.30158  0.33333  0.94319  1.0000
  O   O2457     1.0  0.05683  0.50000  0.86510  1.0000
  O   O2458     1.0  0.27652  0.50000  0.86510  1.0000
  O   O2459     1.0  0.27652  0.50000  0.80156  1.0000
  O   O2460     1.0  0.05683  0.50000  0.80156  1.0000
  O   O2461     1.0  0.03177  0.55683  0.83333  1.0000
  O   O2462     1.0  0.03177  0.44317  0.83333  1.0000
  O   O2463     1.0  0.30158  0.44317  0.83333  1.0000
  O   O2464     1.0  0.30158  0.55683  0.83333  1.0000
  O   O2465     1.0  0.00000  0.53177  0.89016  1.0000
  O   O2466     1.0  0.00000  0.53177  0.77651  1.0000
  O   O2467     1.0  0.00000  0.46823  0.77651  1.0000
  O   O2468     1.0  0.00000  0.46823  0.89016  1.0000
  O   O2469     1.0  0.00000  0.55683  0.80156  1.0000
  O   O2470     1.0  0.00000  0.44317  0.80156  1.0000
  O   O2471     1.0  0.00000  0.44317  0.86510  1.0000
  O   O2472     1.0  0.00000  0.55683  0.86510  1.0000
  O   O2473     1.0  0.05683  0.53177  0.83333  1.0000
  O   O2474     1.0  0.27652  0.53177  0.83333  1.0000
  O   O2475     1.0  0.27652  0.46823  0.83333  1.0000
  O   O2476     1.0  0.05683  0.46823  0.83333  1.0000
  O   O2477     1.0  0.03177  0.50000  0.77651  1.0000
  O   O2478     1.0  0.03177  0.50000  0.89016  1.0000
  O   O2479     1.0  0.30158  0.50000  0.89016  1.0000
  O   O2480     1.0  0.30158  0.50000  0.77651  1.0000
  O   O2481     1.0  0.22349  0.33333  0.86510  1.0000
  O   O2482     1.0  0.10984  0.33333  0.86510  1.0000
  O   O2483     1.0  0.10984  0.33333  0.80156  1.0000
  O   O2484     1.0  0.22349  0.33333  0.80156  1.0000
  O   O2485     1.0  0.19844  0.39016  0.83333  1.0000
  O   O2486     1.0  0.19844  0.60986  0.83333  1.0000
  O   O2487     1.0  0.13490  0.60986  0.83333  1.0000
  O   O2488     1.0  0.13490  0.39016  0.83333  1.0000
  O   O2489     1.0  0.16667  0.36510  0.89016  1.0000
  O   O2490     1.0  0.16667  0.36510  0.77651  1.0000
  O   O2491     1.0  0.16667  0.63491  0.77651  1.0000
  O   O2492     1.0  0.16667  0.63491  0.89016  1.0000
  O   O2493     1.0  0.16667  0.39016  0.80156  1.0000
  O   O2494     1.0  0.16667  0.60986  0.80156  1.0000
  O   O2495     1.0  0.16667  0.60986  0.86510  1.0000
  O   O2496     1.0  0.16667  0.39016  0.86510  1.0000
  O   O2497     1.0  0.22349  0.36510  0.83333  1.0000
  O   O2498     1.0  0.10984  0.36510  0.83333  1.0000
  O   O2499     1.0  0.10984  0.63491  0.83333  1.0000
  O   O2500     1.0  0.22349  0.63491  0.83333  1.0000
  O   O2501     1.0  0.19844  0.33333  0.77651  1.0000
  O   O2502     1.0  0.19844  0.33333  0.89016  1.0000
  O   O2503     1.0  0.13490  0.33333  0.89016  1.0000
  O   O2504     1.0  0.13490  0.33333  0.77651  1.0000
  O   O2505     1.0  0.22349  0.50000  0.69844  1.0000
  O   O2506     1.0  0.10984  0.50000  0.69844  1.0000
  O   O2507     1.0  0.10984  0.50000  0.96824  1.0000
  O   O2508     1.0  0.22349  0.50000  0.96824  1.0000
  O   O2509     1.0  0.19844  0.55683  0.66667  1.0000
  O   O2510     1.0  0.19844  0.44317  0.66667  1.0000
  O   O2511     1.0  0.13490  0.44317  0.66667  1.0000
  O   O2512     1.0  0.13490  0.55683  0.66667  1.0000
  O   O2513     1.0  0.16667  0.53177  0.72349  1.0000
  O   O2514     1.0  0.16667  0.53177  0.94319  1.0000
  O   O2515     1.0  0.16667  0.46823  0.94319  1.0000
  O   O2516     1.0  0.16667  0.46823  0.72349  1.0000
  O   O2517     1.0  0.16667  0.55683  0.96824  1.0000
  O   O2518     1.0  0.16667  0.44317  0.96824  1.0000
  O   O2519     1.0  0.16667  0.44317  0.69844  1.0000
  O   O2520     1.0  0.16667  0.55683  0.69844  1.0000
  O   O2521     1.0  0.22349  0.53177  0.66667  1.0000
  O   O2522     1.0  0.10984  0.53177  0.66667  1.0000
  O   O2523     1.0  0.10984  0.46823  0.66667  1.0000
  O   O2524     1.0  0.22349  0.46823  0.66667  1.0000
  O   O2525     1.0  0.19844  0.50000  0.94319  1.0000
  O   O2526     1.0  0.19844  0.50000  0.72349  1.0000
  O   O2527     1.0  0.13490  0.50000  0.72349  1.0000
  O   O2528     1.0  0.13490  0.50000  0.94319  1.0000
  O   O2529     1.0  0.01870  0.64797  0.98130  1.0000
  O   O2530     1.0  0.31464  0.35203  0.98130  1.0000
  O   O2531     1.0  0.31464  0.64797  0.68536  1.0000
  O   O2532     1.0  0.01870  0.35203  0.68536  1.0000
  O   O2533     1.0  0.31464  0.35203  0.68536  1.0000
  O   O2534     1.0  0.01870  0.64797  0.68536  1.0000
  O   O2535     1.0  0.31464  0.64797  0.98130  1.0000
  O   O2536     1.0  0.01870  0.35203  0.98130  1.0000
  O   O2537     1.0  0.01870  0.48130  0.81464  1.0000
  O   O2538     1.0  0.31464  0.51870  0.81464  1.0000
  O   O2539     1.0  0.31464  0.48130  0.85203  1.0000
  O   O2540     1.0  0.01870  0.51870  0.85203  1.0000
  O   O2541     1.0  0.31464  0.51870  0.85203  1.0000
  O   O2542     1.0  0.01870  0.48130  0.85203  1.0000
  O   O2543     1.0  0.31464  0.48130  0.81464  1.0000
  O   O2544     1.0  0.01870  0.51870  0.81464  1.0000
  O   O2545     1.0  0.18536  0.64797  0.81464  1.0000
  O   O2546     1.0  0.14797  0.35203  0.81464  1.0000
  O   O2547     1.0  0.14797  0.64797  0.85203  1.0000
  O   O2548     1.0  0.18536  0.35203  0.85203  1.0000
  O   O2549     1.0  0.14797  0.35203  0.85203  1.0000
  O   O2550     1.0  0.18536  0.64797  0.85203  1.0000
  O   O2551     1.0  0.14797  0.64797  0.81464  1.0000
  O   O2552     1.0  0.18536  0.35203  0.81464  1.0000
  O   O2553     1.0  0.18536  0.48130  0.98130  1.0000
  O   O2554     1.0  0.14797  0.51870  0.98130  1.0000
  O   O2555     1.0  0.14797  0.48130  0.68536  1.0000
  O   O2556     1.0  0.18536  0.51870  0.68536  1.0000
  O   O2557     1.0  0.14797  0.51870  0.68536  1.0000
  O   O2558     1.0  0.18536  0.48130  0.68536  1.0000
  O   O2559     1.0  0.14797  0.48130  0.98130  1.0000
  O   O2560     1.0  0.18536  0.51870  0.98130  1.0000
  C   C3109     1.0  0.05121  0.33333  0.94881  1.0000
  C   C3110     1.0  0.28214  0.33333  0.94881  1.0000
  C   C3111     1.0  0.28214  0.33333  0.71787  1.0000
  C   C3112     1.0  0.05121  0.33333  0.71787  1.0000
  C   C3113     1.0  0.28214  0.38454  0.66667  1.0000
  C   C3114     1.0  0.28214  0.61548  0.66667  1.0000
  C   C3115     1.0  0.05121  0.61548  0.66667  1.0000
  C   C3116     1.0  0.05121  0.38454  0.66667  1.0000
  C   C3117     1.0  0.00000  0.61548  0.71787  1.0000
  C   C3118     1.0  0.00000  0.61548  0.94881  1.0000
  C   C3119     1.0  0.00000  0.38454  0.94881  1.0000
  C   C3120     1.0  0.00000  0.38454  0.71787  1.0000
  C   C3121     1.0  0.05121  0.50000  0.78214  1.0000
  C   C3122     1.0  0.28214  0.50000  0.78214  1.0000
  C   C3123     1.0  0.28214  0.50000  0.88454  1.0000
  C   C3124     1.0  0.05121  0.50000  0.88454  1.0000
  C   C3125     1.0  0.28214  0.55121  0.83333  1.0000
  C   C3126     1.0  0.28214  0.44881  0.83333  1.0000
  C   C3127     1.0  0.05121  0.44881  0.83333  1.0000
  C   C3128     1.0  0.05121  0.55121  0.83333  1.0000
  C   C3129     1.0  0.00000  0.44881  0.88454  1.0000
  C   C3130     1.0  0.00000  0.44881  0.78214  1.0000
  C   C3131     1.0  0.00000  0.55121  0.78214  1.0000
  C   C3132     1.0  0.00000  0.55121  0.88454  1.0000
  C   C3133     1.0  0.21787  0.33333  0.78214  1.0000
  C   C3134     1.0  0.11548  0.33333  0.78214  1.0000
  C   C3135     1.0  0.11548  0.33333  0.88454  1.0000
  C   C3136     1.0  0.21787  0.33333  0.88454  1.0000
  C   C3137     1.0  0.11548  0.38454  0.83333  1.0000
  C   C3138     1.0  0.11548  0.61548  0.83333  1.0000
  C   C3139     1.0  0.21787  0.61548  0.83333  1.0000
  C   C3140     1.0  0.21787  0.38454  0.83333  1.0000
  C   C3141     1.0  0.16667  0.61548  0.88454  1.0000
  C   C3142     1.0  0.16667  0.61548  0.78214  1.0000
  C   C3143     1.0  0.16667  0.38454  0.78214  1.0000
  C   C3144     1.0  0.16667  0.38454  0.88454  1.0000
  C   C3145     1.0  0.21787  0.50000  0.94881  1.0000
  C   C3146     1.0  0.11548  0.50000  0.94881  1.0000
  C   C3147     1.0  0.11548  0.50000  0.71787  1.0000
  C   C3148     1.0  0.21787  0.50000  0.71787  1.0000
  C   C3149     1.0  0.11548  0.55121  0.66667  1.0000
  C   C3150     1.0  0.11548  0.44881  0.66667  1.0000
  C   C3151     1.0  0.21787  0.44881  0.66667  1.0000
  C   C3152     1.0  0.21787  0.55121  0.66667  1.0000
  C   C3153     1.0  0.16667  0.44881  0.71787  1.0000
  C   C3154     1.0  0.16667  0.44881  0.94881  1.0000
  C   C3155     1.0  0.16667  0.55121  0.94881  1.0000
  C   C3156     1.0  0.16667  0.55121  0.71787  1.0000
  C   C3157     1.0  0.06834  0.33333  0.73501  1.0000
  C   C3158     1.0  0.26501  0.33333  0.73501  1.0000
  C   C3159     1.0  0.26501  0.33333  0.93167  1.0000
  C   C3160     1.0  0.06834  0.33333  0.93167  1.0000
  C   C3161     1.0  0.06834  0.40167  0.66667  1.0000
  C   C3162     1.0  0.06834  0.59834  0.66667  1.0000
  C   C3163     1.0  0.26501  0.59834  0.66667  1.0000
  C   C3164     1.0  0.26501  0.40167  0.66667  1.0000
  C   C3165     1.0  0.00000  0.40167  0.73501  1.0000
  C   C3166     1.0  0.00000  0.40167  0.93167  1.0000
  C   C3167     1.0  0.00000  0.59834  0.93167  1.0000
  C   C3168     1.0  0.06834  0.50000  0.90167  1.0000
  C   C3169     1.0  0.26501  0.50000  0.76501  1.0000
  C   C3170     1.0  0.06834  0.56834  0.83333  1.0000
  C   C3171     1.0  0.06834  0.43167  0.83333  1.0000
  C   C3172     1.0  0.26501  0.43167  0.83333  1.0000
  C   C3173     1.0  0.26501  0.56834  0.83333  1.0000
  C   C3174     1.0  0.00000  0.56834  0.90167  1.0000
  C   C3175     1.0  0.00000  0.43167  0.76501  1.0000
  C   C3176     1.0  0.00000  0.43167  0.90167  1.0000
  C   C3177     1.0  0.23501  0.33333  0.90167  1.0000
  C   C3178     1.0  0.09834  0.33333  0.90167  1.0000
  C   C3179     1.0  0.09834  0.33333  0.76501  1.0000
  C   C3180     1.0  0.23501  0.33333  0.76501  1.0000
  C   C3181     1.0  0.23501  0.40167  0.83333  1.0000
  C   C3182     1.0  0.23501  0.59834  0.83333  1.0000
  C   C3183     1.0  0.09834  0.59834  0.83333  1.0000
  C   C3184     1.0  0.09834  0.40167  0.83333  1.0000
  C   C3185     1.0  0.16667  0.40167  0.90167  1.0000
  C   C3186     1.0  0.16667  0.40167  0.76501  1.0000
  C   C3187     1.0  0.16667  0.59834  0.76501  1.0000
  C   C3188     1.0  0.16667  0.59834  0.90167  1.0000
  C   C3189     1.0  0.23501  0.50000  0.73501  1.0000
  C   C3190     1.0  0.09834  0.50000  0.93167  1.0000
  C   C3191     1.0  0.23501  0.56834  0.66667  1.0000
  C   C3192     1.0  0.23501  0.43167  0.66667  1.0000
  C   C3193     1.0  0.09834  0.43167  0.66667  1.0000
  C   C3194     1.0  0.09834  0.56834  0.66667  1.0000
  C   C3195     1.0  0.16667  0.56834  0.73501  1.0000
  C   C3196     1.0  0.16667  0.56834  0.93167  1.0000
  C   C3197     1.0  0.16667  0.43167  0.93167  1.0000
  C   C3198     1.0  0.16667  0.43167  0.73501  1.0000
  C   C3199     1.0  0.08916  0.33333  0.72813  1.0000
  C   C3200     1.0  0.24417  0.33333  0.72813  1.0000
  C   C3201     1.0  0.24417  0.33333  0.93853  1.0000
  C   C3202     1.0  0.08916  0.33333  0.93853  1.0000
  C   C3203     1.0  0.06147  0.42250  0.66667  1.0000
  C   C3204     1.0  0.06147  0.57750  0.66667  1.0000
  C   C3205     1.0  0.27187  0.57750  0.66667  1.0000
  C   C3206     1.0  0.27187  0.42250  0.66667  1.0000
  C   C3207     1.0  0.00000  0.39480  0.75583  1.0000
  C   C3208     1.0  0.00000  0.39480  0.91084  1.0000
  C   C3209     1.0  0.00000  0.60520  0.91084  1.0000
  C   C3210     1.0  0.00000  0.42250  0.93853  1.0000
  C   C3211     1.0  0.00000  0.57750  0.93853  1.0000
  C   C3212     1.0  0.00000  0.42250  0.72813  1.0000
  C   C3213     1.0  0.08916  0.39480  0.66667  1.0000
  C   C3214     1.0  0.24417  0.39480  0.66667  1.0000
  C   C3215     1.0  0.24417  0.60520  0.66667  1.0000
  C   C3216     1.0  0.08916  0.60520  0.66667  1.0000
  C   C3217     1.0  0.06147  0.33333  0.91084  1.0000
  C   C3218     1.0  0.06147  0.33333  0.75583  1.0000
  C   C3219     1.0  0.27187  0.33333  0.75583  1.0000
  C   C3220     1.0  0.27187  0.33333  0.91084  1.0000
  C   C3221     1.0  0.08916  0.50000  0.89480  1.0000
  C   C3222     1.0  0.24417  0.50000  0.77187  1.0000
  C   C3223     1.0  0.06147  0.58918  0.83333  1.0000
  C   C3224     1.0  0.06147  0.41084  0.83333  1.0000
  C   C3225     1.0  0.27187  0.41084  0.83333  1.0000
  C   C3226     1.0  0.27187  0.58918  0.83333  1.0000
  C   C3227     1.0  0.00000  0.56147  0.92251  1.0000
  C   C3228     1.0  0.00000  0.43853  0.74417  1.0000
  C   C3229     1.0  0.00000  0.43853  0.92251  1.0000
  C   C3230     1.0  0.00000  0.41084  0.77187  1.0000
  C   C3231     1.0  0.00000  0.41084  0.89480  1.0000
  C   C3232     1.0  0.00000  0.58918  0.89480  1.0000
  C   C3233     1.0  0.08916  0.56147  0.83333  1.0000
  C   C3234     1.0  0.24417  0.56147  0.83333  1.0000
  C   C3235     1.0  0.24417  0.43853  0.83333  1.0000
  C   C3236     1.0  0.08916  0.43853  0.83333  1.0000
  C   C3237     1.0  0.06147  0.50000  0.92251  1.0000
  C   C3238     1.0  0.27187  0.50000  0.74417  1.0000
  C   C3239     1.0  0.25585  0.33333  0.89480  1.0000
  C   C3240     1.0  0.07750  0.33333  0.89480  1.0000
  C   C3241     1.0  0.07750  0.33333  0.77187  1.0000
  C   C3242     1.0  0.25585  0.33333  0.77187  1.0000
  C   C3243     1.0  0.22813  0.42250  0.83333  1.0000
  C   C3244     1.0  0.22813  0.57750  0.83333  1.0000
  C   C3245     1.0  0.10520  0.57750  0.83333  1.0000
  C   C3246     1.0  0.10520  0.42250  0.83333  1.0000
  C   C3247     1.0  0.16667  0.39480  0.92251  1.0000
  C   C3248     1.0  0.16667  0.39480  0.74417  1.0000
  C   C3249     1.0  0.16667  0.60520  0.74417  1.0000
  C   C3250     1.0  0.16667  0.60520  0.92251  1.0000
  C   C3251     1.0  0.16667  0.42250  0.77187  1.0000
  C   C3252     1.0  0.16667  0.57750  0.77187  1.0000
  C   C3253     1.0  0.16667  0.57750  0.89480  1.0000
  C   C3254     1.0  0.16667  0.42250  0.89480  1.0000
  C   C3255     1.0  0.25585  0.39480  0.83333  1.0000
  C   C3256     1.0  0.07750  0.39480  0.83333  1.0000
  C   C3257     1.0  0.07750  0.60520  0.83333  1.0000
  C   C3258     1.0  0.25585  0.60520  0.83333  1.0000
  C   C3259     1.0  0.22813  0.33333  0.74417  1.0000
  C   C3260     1.0  0.22813  0.33333  0.92251  1.0000
  C   C3261     1.0  0.10520  0.33333  0.92251  1.0000
  C   C3262     1.0  0.10520  0.33333  0.74417  1.0000
  C   C3263     1.0  0.25585  0.50000  0.72813  1.0000
  C   C3264     1.0  0.07750  0.50000  0.93853  1.0000
  C   C3265     1.0  0.22813  0.58918  0.66667  1.0000
  C   C3266     1.0  0.22813  0.41084  0.66667  1.0000
  C   C3267     1.0  0.10520  0.41084  0.66667  1.0000
  C   C3268     1.0  0.10520  0.58918  0.66667  1.0000
  C   C3269     1.0  0.16667  0.56147  0.75583  1.0000
  C   C3270     1.0  0.16667  0.56147  0.91084  1.0000
  C   C3271     1.0  0.16667  0.43853  0.91084  1.0000
  C   C3272     1.0  0.16667  0.43853  0.75583  1.0000
  C   C3273     1.0  0.16667  0.58918  0.93853  1.0000
  C   C3274     1.0  0.16667  0.41084  0.93853  1.0000
  C   C3275     1.0  0.16667  0.41084  0.72813  1.0000
  C   C3276     1.0  0.16667  0.58918  0.72813  1.0000
  C   C3277     1.0  0.25585  0.56147  0.66667  1.0000
  C   C3278     1.0  0.07750  0.56147  0.66667  1.0000
  C   C3279     1.0  0.07750  0.43853  0.66667  1.0000
  C   C3280     1.0  0.25585  0.43853  0.66667  1.0000
  C   C3281     1.0  0.22813  0.50000  0.75583  1.0000
  C   C3282     1.0  0.10520  0.50000  0.91084  1.0000
  H   H1465     1.0  0.09301  0.33333  0.71196  1.0000
  H   H1466     1.0  0.24032  0.33333  0.71196  1.0000
  H   H1467     1.0  0.24032  0.33333  0.95470  1.0000
  H   H1468     1.0  0.09301  0.33333  0.95470  1.0000
  H   H1469     1.0  0.04530  0.42634  0.66667  1.0000
  H   H1470     1.0  0.04530  0.57366  0.66667  1.0000
  H   H1471     1.0  0.28804  0.57366  0.66667  1.0000
  H   H1472     1.0  0.28804  0.42634  0.66667  1.0000
  H   H1473     1.0  0.00000  0.37863  0.75968  1.0000
  H   H1474     1.0  0.00000  0.37863  0.90699  1.0000
  H   H1475     1.0  0.00000  0.62137  0.90699  1.0000
  H   H1476     1.0  0.00000  0.42634  0.95470  1.0000
  H   H1477     1.0  0.00000  0.57366  0.95470  1.0000
  H   H1478     1.0  0.00000  0.42634  0.71196  1.0000
  H   H1479     1.0  0.09301  0.37863  0.66667  1.0000
  H   H1480     1.0  0.24032  0.37863  0.66667  1.0000
  H   H1481     1.0  0.24032  0.62137  0.66667  1.0000
  H   H1482     1.0  0.09301  0.62137  0.66667  1.0000
  H   H1483     1.0  0.04530  0.33333  0.90699  1.0000
  H   H1484     1.0  0.04530  0.33333  0.75968  1.0000
  H   H1485     1.0  0.28804  0.33333  0.75968  1.0000
  H   H1486     1.0  0.28804  0.33333  0.90699  1.0000
  H   H1487     1.0  0.09301  0.50000  0.87863  1.0000
  H   H1488     1.0  0.24032  0.50000  0.78804  1.0000
  H   H1489     1.0  0.04530  0.59301  0.83333  1.0000
  H   H1490     1.0  0.04530  0.40699  0.83333  1.0000
  H   H1491     1.0  0.28804  0.40699  0.83333  1.0000
  H   H1492     1.0  0.28804  0.59301  0.83333  1.0000
  H   H1493     1.0  0.00000  0.54530  0.92634  1.0000
  H   H1494     1.0  0.00000  0.45470  0.74032  1.0000
  H   H1495     1.0  0.00000  0.45470  0.92634  1.0000
  H   H1496     1.0  0.00000  0.40699  0.78804  1.0000
  H   H1497     1.0  0.00000  0.40699  0.87863  1.0000
  H   H1498     1.0  0.00000  0.59301  0.87863  1.0000
  H   H1499     1.0  0.09301  0.54530  0.83333  1.0000
  H   H1500     1.0  0.24032  0.54530  0.83333  1.0000
  H   H1501     1.0  0.24032  0.45470  0.83333  1.0000
  H   H1502     1.0  0.09301  0.45470  0.83333  1.0000
  H   H1503     1.0  0.04530  0.50000  0.92634  1.0000
  H   H1504     1.0  0.28804  0.50000  0.74032  1.0000
  H   H1505     1.0  0.25968  0.33333  0.87863  1.0000
  H   H1506     1.0  0.07366  0.33333  0.87863  1.0000
  H   H1507     1.0  0.07366  0.33333  0.78804  1.0000
  H   H1508     1.0  0.25968  0.33333  0.78804  1.0000
  H   H1509     1.0  0.21196  0.42634  0.83333  1.0000
  H   H1510     1.0  0.21196  0.57366  0.83333  1.0000
  H   H1511     1.0  0.12137  0.57366  0.83333  1.0000
  H   H1512     1.0  0.12137  0.42634  0.83333  1.0000
  H   H1513     1.0  0.16667  0.37863  0.92634  1.0000
  H   H1514     1.0  0.16667  0.37863  0.74032  1.0000
  H   H1515     1.0  0.16667  0.62137  0.74032  1.0000
  H   H1516     1.0  0.16667  0.62137  0.92634  1.0000
  H   H1517     1.0  0.16667  0.42634  0.78804  1.0000
  H   H1518     1.0  0.16667  0.57366  0.78804  1.0000
  H   H1519     1.0  0.16667  0.57366  0.87863  1.0000
  H   H1520     1.0  0.16667  0.42634  0.87863  1.0000
  H   H1521     1.0  0.25968  0.37863  0.83333  1.0000
  H   H1522     1.0  0.07366  0.37863  0.83333  1.0000
  H   H1523     1.0  0.07366  0.62137  0.83333  1.0000
  H   H1524     1.0  0.25968  0.62137  0.83333  1.0000
  H   H1525     1.0  0.21196  0.33333  0.74032  1.0000
  H   H1526     1.0  0.21196  0.33333  0.92634  1.0000
  H   H1527     1.0  0.12137  0.33333  0.92634  1.0000
  H   H1528     1.0  0.12137  0.33333  0.74032  1.0000
  H   H1529     1.0  0.25968  0.50000  0.71196  1.0000
  H   H1530     1.0  0.07366  0.50000  0.95470  1.0000
  H   H1531     1.0  0.21196  0.59301  0.66667  1.0000
  H   H1532     1.0  0.21196  0.40699  0.66667  1.0000
  H   H1533     1.0  0.12137  0.40699  0.66667  1.0000
  H   H1534     1.0  0.12137  0.59301  0.66667  1.0000
  H   H1535     1.0  0.16667  0.54530  0.75968  1.0000
  H   H1536     1.0  0.16667  0.54530  0.90699  1.0000
  H   H1537     1.0  0.16667  0.45470  0.90699  1.0000
  H   H1538     1.0  0.16667  0.45470  0.75968  1.0000
  H   H1539     1.0  0.16667  0.59301  0.95470  1.0000
  H   H1540     1.0  0.16667  0.40699  0.95470  1.0000
  H   H1541     1.0  0.16667  0.40699  0.71196  1.0000
  H   H1542     1.0  0.16667  0.59301  0.71196  1.0000
  H   H1543     1.0  0.25968  0.54530  0.66667  1.0000
  H   H1544     1.0  0.07366  0.54530  0.66667  1.0000
  H   H1545     1.0  0.07366  0.45470  0.66667  1.0000
  H   H1546     1.0  0.25968  0.45470  0.66667  1.0000
  H   H1547     1.0  0.21196  0.50000  0.75968  1.0000
  H   H1548     1.0  0.12137  0.50000  0.90699  1.0000
  Zr  Zr481     1.0  0.03997  0.66667  0.66667  1.0000
  Zr  Zr482     1.0  0.29338  0.66667  0.66667  1.0000
  Zr  Zr483     1.0  0.00000  0.70663  0.66667  1.0000
  Zr  Zr484     1.0  0.00000  0.96005  0.66667  1.0000
  Zr  Zr485     1.0  0.00000  0.66667  0.70663  1.0000
  Zr  Zr486     1.0  0.00000  0.66667  0.96005  1.0000
  Zr  Zr487     1.0  0.03997  0.83333  0.83333  1.0000
  Zr  Zr488     1.0  0.29338  0.83333  0.83333  1.0000
  Zr  Zr489     1.0  0.00000  0.87330  0.83333  1.0000
  Zr  Zr490     1.0  0.00000  0.79337  0.83333  1.0000
  Zr  Zr491     1.0  0.00000  0.83333  0.87330  1.0000
  Zr  Zr492     1.0  0.00000  0.83333  0.79337  1.0000
  Zr  Zr493     1.0  0.20663  0.66667  0.83333  1.0000
  Zr  Zr494     1.0  0.12670  0.66667  0.83333  1.0000
  Zr  Zr495     1.0  0.16667  0.70663  0.83333  1.0000
  Zr  Zr496     1.0  0.16667  0.96005  0.83333  1.0000
  Zr  Zr497     1.0  0.16667  0.66667  0.87330  1.0000
  Zr  Zr498     1.0  0.16667  0.66667  0.79337  1.0000
  Zr  Zr499     1.0  0.20663  0.83333  0.66667  1.0000
  Zr  Zr500     1.0  0.12670  0.83333  0.66667  1.0000
  Zr  Zr501     1.0  0.16667  0.87330  0.66667  1.0000
  Zr  Zr502     1.0  0.16667  0.79337  0.66667  1.0000
  Zr  Zr503     1.0  0.16667  0.83333  0.70663  1.0000
  Zr  Zr504     1.0  0.16667  0.83333  0.96005  1.0000
  O   O2561     1.0  0.05683  0.66667  0.69844  1.0000
  O   O2562     1.0  0.27652  0.66667  0.69844  1.0000
  O   O2563     1.0  0.27652  0.66667  0.96824  1.0000
  O   O2564     1.0  0.05683  0.66667  0.96824  1.0000
  O   O2565     1.0  0.03177  0.72349  0.66667  1.0000
  O   O2566     1.0  0.03177  0.94319  0.66667  1.0000
  O   O2567     1.0  0.30158  0.94319  0.66667  1.0000
  O   O2568     1.0  0.30158  0.72349  0.66667  1.0000
  O   O2569     1.0  0.00000  0.69844  0.72349  1.0000
  O   O2570     1.0  0.00000  0.69844  0.94319  1.0000
  O   O2571     1.0  0.00000  0.96824  0.94319  1.0000
  O   O2572     1.0  0.00000  0.96824  0.72349  1.0000
  O   O2573     1.0  0.00000  0.72349  0.96824  1.0000
  O   O2574     1.0  0.00000  0.94319  0.96824  1.0000
  O   O2575     1.0  0.00000  0.94319  0.69844  1.0000
  O   O2576     1.0  0.00000  0.72349  0.69844  1.0000
  O   O2577     1.0  0.05683  0.69844  0.66667  1.0000
  O   O2578     1.0  0.27652  0.69844  0.66667  1.0000
  O   O2579     1.0  0.27652  0.96824  0.66667  1.0000
  O   O2580     1.0  0.05683  0.96824  0.66667  1.0000
  O   O2581     1.0  0.03177  0.66667  0.94319  1.0000
  O   O2582     1.0  0.03177  0.66667  0.72349  1.0000
  O   O2583     1.0  0.30158  0.66667  0.72349  1.0000
  O   O2584     1.0  0.30158  0.66667  0.94319  1.0000
  O   O2585     1.0  0.05683  0.83333  0.86510  1.0000
  O   O2586     1.0  0.27652  0.83333  0.86510  1.0000
  O   O2587     1.0  0.27652  0.83333  0.80156  1.0000
  O   O2588     1.0  0.05683  0.83333  0.80156  1.0000
  O   O2589     1.0  0.03177  0.89016  0.83333  1.0000
  O   O2590     1.0  0.03177  0.77651  0.83333  1.0000
  O   O2591     1.0  0.30158  0.77651  0.83333  1.0000
  O   O2592     1.0  0.30158  0.89016  0.83333  1.0000
  O   O2593     1.0  0.00000  0.86510  0.89016  1.0000
  O   O2594     1.0  0.00000  0.86510  0.77651  1.0000
  O   O2595     1.0  0.00000  0.80156  0.77651  1.0000
  O   O2596     1.0  0.00000  0.80156  0.89016  1.0000
  O   O2597     1.0  0.00000  0.89016  0.80156  1.0000
  O   O2598     1.0  0.00000  0.77651  0.80156  1.0000
  O   O2599     1.0  0.00000  0.77651  0.86510  1.0000
  O   O2600     1.0  0.00000  0.89016  0.86510  1.0000
  O   O2601     1.0  0.05683  0.86510  0.83333  1.0000
  O   O2602     1.0  0.27652  0.86510  0.83333  1.0000
  O   O2603     1.0  0.27652  0.80156  0.83333  1.0000
  O   O2604     1.0  0.05683  0.80156  0.83333  1.0000
  O   O2605     1.0  0.03177  0.83333  0.77651  1.0000
  O   O2606     1.0  0.03177  0.83333  0.89016  1.0000
  O   O2607     1.0  0.30158  0.83333  0.89016  1.0000
  O   O2608     1.0  0.30158  0.83333  0.77651  1.0000
  O   O2609     1.0  0.22349  0.66667  0.86510  1.0000
  O   O2610     1.0  0.10984  0.66667  0.86510  1.0000
  O   O2611     1.0  0.10984  0.66667  0.80156  1.0000
  O   O2612     1.0  0.22349  0.66667  0.80156  1.0000
  O   O2613     1.0  0.19844  0.72349  0.83333  1.0000
  O   O2614     1.0  0.19844  0.94319  0.83333  1.0000
  O   O2615     1.0  0.13490  0.94319  0.83333  1.0000
  O   O2616     1.0  0.13490  0.72349  0.83333  1.0000
  O   O2617     1.0  0.16667  0.69844  0.89016  1.0000
  O   O2618     1.0  0.16667  0.69844  0.77651  1.0000
  O   O2619     1.0  0.16667  0.96824  0.77651  1.0000
  O   O2620     1.0  0.16667  0.96824  0.89016  1.0000
  O   O2621     1.0  0.16667  0.72349  0.80156  1.0000
  O   O2622     1.0  0.16667  0.94319  0.80156  1.0000
  O   O2623     1.0  0.16667  0.94319  0.86510  1.0000
  O   O2624     1.0  0.16667  0.72349  0.86510  1.0000
  O   O2625     1.0  0.22349  0.69844  0.83333  1.0000
  O   O2626     1.0  0.10984  0.69844  0.83333  1.0000
  O   O2627     1.0  0.10984  0.96824  0.83333  1.0000
  O   O2628     1.0  0.22349  0.96824  0.83333  1.0000
  O   O2629     1.0  0.19844  0.66667  0.77651  1.0000
  O   O2630     1.0  0.19844  0.66667  0.89016  1.0000
  O   O2631     1.0  0.13490  0.66667  0.89016  1.0000
  O   O2632     1.0  0.13490  0.66667  0.77651  1.0000
  O   O2633     1.0  0.22349  0.83333  0.69844  1.0000
  O   O2634     1.0  0.10984  0.83333  0.69844  1.0000
  O   O2635     1.0  0.10984  0.83333  0.96824  1.0000
  O   O2636     1.0  0.22349  0.83333  0.96824  1.0000
  O   O2637     1.0  0.19844  0.89016  0.66667  1.0000
  O   O2638     1.0  0.19844  0.77651  0.66667  1.0000
  O   O2639     1.0  0.13490  0.77651  0.66667  1.0000
  O   O2640     1.0  0.13490  0.89016  0.66667  1.0000
  O   O2641     1.0  0.16667  0.86510  0.72349  1.0000
  O   O2642     1.0  0.16667  0.86510  0.94319  1.0000
  O   O2643     1.0  0.16667  0.80156  0.94319  1.0000
  O   O2644     1.0  0.16667  0.80156  0.72349  1.0000
  O   O2645     1.0  0.16667  0.89016  0.96824  1.0000
  O   O2646     1.0  0.16667  0.77651  0.96824  1.0000
  O   O2647     1.0  0.16667  0.77651  0.69844  1.0000
  O   O2648     1.0  0.16667  0.89016  0.69844  1.0000
  O   O2649     1.0  0.22349  0.86510  0.66667  1.0000
  O   O2650     1.0  0.10984  0.86510  0.66667  1.0000
  O   O2651     1.0  0.10984  0.80156  0.66667  1.0000
  O   O2652     1.0  0.22349  0.80156  0.66667  1.0000
  O   O2653     1.0  0.19844  0.83333  0.94319  1.0000
  O   O2654     1.0  0.19844  0.83333  0.72349  1.0000
  O   O2655     1.0  0.13490  0.83333  0.72349  1.0000
  O   O2656     1.0  0.13490  0.83333  0.94319  1.0000
  O   O2657     1.0  0.01870  0.98130  0.98130  1.0000
  O   O2658     1.0  0.31464  0.68536  0.98130  1.0000
  O   O2659     1.0  0.31464  0.98130  0.68536  1.0000
  O   O2660     1.0  0.01870  0.68536  0.68536  1.0000
  O   O2661     1.0  0.31464  0.68536  0.68536  1.0000
  O   O2662     1.0  0.01870  0.98130  0.68536  1.0000
  O   O2663     1.0  0.31464  0.98130  0.98130  1.0000
  O   O2664     1.0  0.01870  0.68536  0.98130  1.0000
  O   O2665     1.0  0.01870  0.81464  0.81464  1.0000
  O   O2666     1.0  0.31464  0.85203  0.81464  1.0000
  O   O2667     1.0  0.31464  0.81464  0.85203  1.0000
  O   O2668     1.0  0.01870  0.85203  0.85203  1.0000
  O   O2669     1.0  0.31464  0.85203  0.85203  1.0000
  O   O2670     1.0  0.01870  0.81464  0.85203  1.0000
  O   O2671     1.0  0.31464  0.81464  0.81464  1.0000
  O   O2672     1.0  0.01870  0.85203  0.81464  1.0000
  O   O2673     1.0  0.18536  0.98130  0.81464  1.0000
  O   O2674     1.0  0.14797  0.68536  0.81464  1.0000
  O   O2675     1.0  0.14797  0.98130  0.85203  1.0000
  O   O2676     1.0  0.18536  0.68536  0.85203  1.0000
  O   O2677     1.0  0.14797  0.68536  0.85203  1.0000
  O   O2678     1.0  0.18536  0.98130  0.85203  1.0000
  O   O2679     1.0  0.14797  0.98130  0.81464  1.0000
  O   O2680     1.0  0.18536  0.68536  0.81464  1.0000
  O   O2681     1.0  0.18536  0.81464  0.98130  1.0000
  O   O2682     1.0  0.14797  0.85203  0.98130  1.0000
  O   O2683     1.0  0.14797  0.81464  0.68536  1.0000
  O   O2684     1.0  0.18536  0.85203  0.68536  1.0000
  O   O2685     1.0  0.14797  0.85203  0.68536  1.0000
  O   O2686     1.0  0.18536  0.81464  0.68536  1.0000
  O   O2687     1.0  0.14797  0.81464  0.98130  1.0000
  O   O2688     1.0  0.18536  0.85203  0.98130  1.0000
  C   C3283     1.0  0.05121  0.66667  0.94881  1.0000
  C   C3284     1.0  0.28214  0.66667  0.94881  1.0000
  C   C3285     1.0  0.28214  0.66667  0.71787  1.0000
  C   C3286     1.0  0.05121  0.66667  0.71787  1.0000
  C   C3287     1.0  0.28214  0.71787  0.66667  1.0000
  C   C3288     1.0  0.28214  0.94881  0.66667  1.0000
  C   C3289     1.0  0.05121  0.94881  0.66667  1.0000
  C   C3290     1.0  0.05121  0.71787  0.66667  1.0000
  C   C3291     1.0  0.00000  0.94881  0.71787  1.0000
  C   C3292     1.0  0.00000  0.94881  0.94881  1.0000
  C   C3293     1.0  0.00000  0.71787  0.94881  1.0000
  C   C3294     1.0  0.00000  0.71787  0.71787  1.0000
  C   C3295     1.0  0.05121  0.83333  0.78214  1.0000
  C   C3296     1.0  0.28214  0.83333  0.78214  1.0000
  C   C3297     1.0  0.28214  0.83333  0.88454  1.0000
  C   C3298     1.0  0.05121  0.83333  0.88454  1.0000
  C   C3299     1.0  0.28214  0.88454  0.83333  1.0000
  C   C3300     1.0  0.28214  0.78214  0.83333  1.0000
  C   C3301     1.0  0.05121  0.78214  0.83333  1.0000
  C   C3302     1.0  0.05121  0.88454  0.83333  1.0000
  C   C3303     1.0  0.00000  0.78214  0.88454  1.0000
  C   C3304     1.0  0.00000  0.78214  0.78214  1.0000
  C   C3305     1.0  0.00000  0.88454  0.78214  1.0000
  C   C3306     1.0  0.00000  0.88454  0.88454  1.0000
  C   C3307     1.0  0.21787  0.66667  0.78214  1.0000
  C   C3308     1.0  0.11548  0.66667  0.78214  1.0000
  C   C3309     1.0  0.11548  0.66667  0.88454  1.0000
  C   C3310     1.0  0.21787  0.66667  0.88454  1.0000
  C   C3311     1.0  0.11548  0.71787  0.83333  1.0000
  C   C3312     1.0  0.11548  0.94881  0.83333  1.0000
  C   C3313     1.0  0.21787  0.94881  0.83333  1.0000
  C   C3314     1.0  0.21787  0.71787  0.83333  1.0000
  C   C3315     1.0  0.16667  0.94881  0.88454  1.0000
  C   C3316     1.0  0.16667  0.94881  0.78214  1.0000
  C   C3317     1.0  0.16667  0.71787  0.78214  1.0000
  C   C3318     1.0  0.16667  0.71787  0.88454  1.0000
  C   C3319     1.0  0.21787  0.83333  0.94881  1.0000
  C   C3320     1.0  0.11548  0.83333  0.94881  1.0000
  C   C3321     1.0  0.11548  0.83333  0.71787  1.0000
  C   C3322     1.0  0.21787  0.83333  0.71787  1.0000
  C   C3323     1.0  0.11548  0.88454  0.66667  1.0000
  C   C3324     1.0  0.11548  0.78214  0.66667  1.0000
  C   C3325     1.0  0.21787  0.78214  0.66667  1.0000
  C   C3326     1.0  0.21787  0.88454  0.66667  1.0000
  C   C3327     1.0  0.16667  0.78214  0.71787  1.0000
  C   C3328     1.0  0.16667  0.78214  0.94881  1.0000
  C   C3329     1.0  0.16667  0.88454  0.94881  1.0000
  C   C3330     1.0  0.16667  0.88454  0.71787  1.0000
  C   C3331     1.0  0.06834  0.66667  0.73501  1.0000
  C   C3332     1.0  0.26501  0.66667  0.73501  1.0000
  C   C3333     1.0  0.26501  0.66667  0.93167  1.0000
  C   C3334     1.0  0.06834  0.66667  0.93167  1.0000
  C   C3335     1.0  0.06834  0.73501  0.66667  1.0000
  C   C3336     1.0  0.06834  0.93167  0.66667  1.0000
  C   C3337     1.0  0.26501  0.93167  0.66667  1.0000
  C   C3338     1.0  0.26501  0.73501  0.66667  1.0000
  C   C3339     1.0  0.00000  0.73501  0.73501  1.0000
  C   C3340     1.0  0.00000  0.93167  0.93167  1.0000
  C   C3341     1.0  0.00000  0.93167  0.73501  1.0000
  C   C3342     1.0  0.06834  0.83333  0.90167  1.0000
  C   C3343     1.0  0.26501  0.83333  0.90167  1.0000
  C   C3344     1.0  0.26501  0.83333  0.76501  1.0000
  C   C3345     1.0  0.06834  0.90167  0.83333  1.0000
  C   C3346     1.0  0.06834  0.76501  0.83333  1.0000
  C   C3347     1.0  0.26501  0.76501  0.83333  1.0000
  C   C3348     1.0  0.26501  0.90167  0.83333  1.0000
  C   C3349     1.0  0.00000  0.90167  0.90167  1.0000
  C   C3350     1.0  0.00000  0.90167  0.76501  1.0000
  C   C3351     1.0  0.00000  0.76501  0.76501  1.0000
  C   C3352     1.0  0.23501  0.66667  0.90167  1.0000
  C   C3353     1.0  0.09834  0.66667  0.90167  1.0000
  C   C3354     1.0  0.09834  0.66667  0.76501  1.0000
  C   C3355     1.0  0.23501  0.66667  0.76501  1.0000
  C   C3356     1.0  0.23501  0.73501  0.83333  1.0000
  C   C3357     1.0  0.23501  0.93167  0.83333  1.0000
  C   C3358     1.0  0.09834  0.93167  0.83333  1.0000
  C   C3359     1.0  0.09834  0.73501  0.83333  1.0000
  C   C3360     1.0  0.16667  0.73501  0.90167  1.0000
  C   C3361     1.0  0.16667  0.73501  0.76501  1.0000
  C   C3362     1.0  0.16667  0.93167  0.76501  1.0000
  C   C3363     1.0  0.16667  0.93167  0.90167  1.0000
  C   C3364     1.0  0.23501  0.83333  0.73501  1.0000
  C   C3365     1.0  0.09834  0.83333  0.93167  1.0000
  C   C3366     1.0  0.23501  0.83333  0.93167  1.0000
  C   C3367     1.0  0.23501  0.90167  0.66667  1.0000
  C   C3368     1.0  0.23501  0.76501  0.66667  1.0000
  C   C3369     1.0  0.09834  0.76501  0.66667  1.0000
  C   C3370     1.0  0.09834  0.90167  0.66667  1.0000
  C   C3371     1.0  0.16667  0.90167  0.73501  1.0000
  C   C3372     1.0  0.16667  0.90167  0.93167  1.0000
  C   C3373     1.0  0.16667  0.76501  0.93167  1.0000
  C   C3374     1.0  0.16667  0.76501  0.73501  1.0000
  C   C3375     1.0  0.08916  0.66667  0.72813  1.0000
  C   C3376     1.0  0.24417  0.66667  0.72813  1.0000
  C   C3377     1.0  0.24417  0.66667  0.93853  1.0000
  C   C3378     1.0  0.08916  0.66667  0.93853  1.0000
  C   C3379     1.0  0.06147  0.75583  0.66667  1.0000
  C   C3380     1.0  0.06147  0.91084  0.66667  1.0000
  C   C3381     1.0  0.27187  0.91084  0.66667  1.0000
  C   C3382     1.0  0.27187  0.75583  0.66667  1.0000
  C   C3383     1.0  0.00000  0.72813  0.75583  1.0000
  C   C3384     1.0  0.00000  0.93853  0.91084  1.0000
  C   C3385     1.0  0.00000  0.93853  0.75583  1.0000
  C   C3386     1.0  0.00000  0.91084  0.93853  1.0000
  C   C3387     1.0  0.00000  0.91084  0.72813  1.0000
  C   C3388     1.0  0.00000  0.75583  0.72813  1.0000
  C   C3389     1.0  0.08916  0.72813  0.66667  1.0000
  C   C3390     1.0  0.24417  0.72813  0.66667  1.0000
  C   C3391     1.0  0.24417  0.93853  0.66667  1.0000
  C   C3392     1.0  0.08916  0.93853  0.66667  1.0000
  C   C3393     1.0  0.06147  0.66667  0.91084  1.0000
  C   C3394     1.0  0.06147  0.66667  0.75583  1.0000
  C   C3395     1.0  0.27187  0.66667  0.75583  1.0000
  C   C3396     1.0  0.27187  0.66667  0.91084  1.0000
  C   C3397     1.0  0.08916  0.83333  0.89480  1.0000
  C   C3398     1.0  0.24417  0.83333  0.89480  1.0000
  C   C3399     1.0  0.24417  0.83333  0.77187  1.0000
  C   C3400     1.0  0.06147  0.92251  0.83333  1.0000
  C   C3401     1.0  0.06147  0.74417  0.83333  1.0000
  C   C3402     1.0  0.27187  0.74417  0.83333  1.0000
  C   C3403     1.0  0.27187  0.92251  0.83333  1.0000
  C   C3404     1.0  0.00000  0.89480  0.92251  1.0000
  C   C3405     1.0  0.00000  0.89480  0.74417  1.0000
  C   C3406     1.0  0.00000  0.77187  0.74417  1.0000
  C   C3407     1.0  0.00000  0.92251  0.77187  1.0000
  C   C3408     1.0  0.00000  0.74417  0.77187  1.0000
  C   C3409     1.0  0.00000  0.92251  0.89480  1.0000
  C   C3410     1.0  0.08916  0.89480  0.83333  1.0000
  C   C3411     1.0  0.24417  0.89480  0.83333  1.0000
  C   C3412     1.0  0.24417  0.77187  0.83333  1.0000
  C   C3413     1.0  0.08916  0.77187  0.83333  1.0000
  C   C3414     1.0  0.06147  0.83333  0.92251  1.0000
  C   C3415     1.0  0.27187  0.83333  0.92251  1.0000
  C   C3416     1.0  0.27187  0.83333  0.74417  1.0000
  C   C3417     1.0  0.25585  0.66667  0.89480  1.0000
  C   C3418     1.0  0.07750  0.66667  0.89480  1.0000
  C   C3419     1.0  0.07750  0.66667  0.77187  1.0000
  C   C3420     1.0  0.25585  0.66667  0.77187  1.0000
  C   C3421     1.0  0.22813  0.75583  0.83333  1.0000
  C   C3422     1.0  0.22813  0.91084  0.83333  1.0000
  C   C3423     1.0  0.10520  0.91084  0.83333  1.0000
  C   C3424     1.0  0.10520  0.75583  0.83333  1.0000
  C   C3425     1.0  0.16667  0.72813  0.92251  1.0000
  C   C3426     1.0  0.16667  0.72813  0.74417  1.0000
  C   C3427     1.0  0.16667  0.93853  0.74417  1.0000
  C   C3428     1.0  0.16667  0.93853  0.92251  1.0000
  C   C3429     1.0  0.16667  0.75583  0.77187  1.0000
  C   C3430     1.0  0.16667  0.91084  0.77187  1.0000
  C   C3431     1.0  0.16667  0.91084  0.89480  1.0000
  C   C3432     1.0  0.16667  0.75583  0.89480  1.0000
  C   C3433     1.0  0.25585  0.72813  0.83333  1.0000
  C   C3434     1.0  0.07750  0.72813  0.83333  1.0000
  C   C3435     1.0  0.07750  0.93853  0.83333  1.0000
  C   C3436     1.0  0.25585  0.93853  0.83333  1.0000
  C   C3437     1.0  0.22813  0.66667  0.74417  1.0000
  C   C3438     1.0  0.22813  0.66667  0.92251  1.0000
  C   C3439     1.0  0.10520  0.66667  0.92251  1.0000
  C   C3440     1.0  0.10520  0.66667  0.74417  1.0000
  C   C3441     1.0  0.25585  0.83333  0.72813  1.0000
  C   C3442     1.0  0.07750  0.83333  0.93853  1.0000
  C   C3443     1.0  0.25585  0.83333  0.93853  1.0000
  C   C3444     1.0  0.22813  0.92251  0.66667  1.0000
  C   C3445     1.0  0.22813  0.74417  0.66667  1.0000
  C   C3446     1.0  0.10520  0.74417  0.66667  1.0000
  C   C3447     1.0  0.10520  0.92251  0.66667  1.0000
  C   C3448     1.0  0.16667  0.89480  0.75583  1.0000
  C   C3449     1.0  0.16667  0.89480  0.91084  1.0000
  C   C3450     1.0  0.16667  0.77187  0.91084  1.0000
  C   C3451     1.0  0.16667  0.77187  0.75583  1.0000
  C   C3452     1.0  0.16667  0.92251  0.93853  1.0000
  C   C3453     1.0  0.16667  0.74417  0.93853  1.0000
  C   C3454     1.0  0.16667  0.74417  0.72813  1.0000
  C   C3455     1.0  0.16667  0.92251  0.72813  1.0000
  C   C3456     1.0  0.25585  0.89480  0.66667  1.0000
  C   C3457     1.0  0.07750  0.89480  0.66667  1.0000
  C   C3458     1.0  0.07750  0.77187  0.66667  1.0000
  C   C3459     1.0  0.25585  0.77187  0.66667  1.0000
  C   C3460     1.0  0.22813  0.83333  0.91084  1.0000
  C   C3461     1.0  0.22813  0.83333  0.75583  1.0000
  C   C3462     1.0  0.10520  0.83333  0.91084  1.0000
  H   H1549     1.0  0.09301  0.66667  0.71196  1.0000
  H   H1550     1.0  0.24032  0.66667  0.71196  1.0000
  H   H1551     1.0  0.24032  0.66667  0.95470  1.0000
  H   H1552     1.0  0.09301  0.66667  0.95470  1.0000
  H   H1553     1.0  0.04530  0.75968  0.66667  1.0000
  H   H1554     1.0  0.04530  0.90699  0.66667  1.0000
  H   H1555     1.0  0.28804  0.90699  0.66667  1.0000
  H   H1556     1.0  0.28804  0.75968  0.66667  1.0000
  H   H1557     1.0  0.00000  0.71196  0.75968  1.0000
  H   H1558     1.0  0.00000  0.95470  0.90699  1.0000
  H   H1559     1.0  0.00000  0.95470  0.75968  1.0000
  H   H1560     1.0  0.00000  0.90699  0.95470  1.0000
  H   H1561     1.0  0.00000  0.90699  0.71196  1.0000
  H   H1562     1.0  0.00000  0.75968  0.71196  1.0000
  H   H1563     1.0  0.09301  0.71196  0.66667  1.0000
  H   H1564     1.0  0.24032  0.71196  0.66667  1.0000
  H   H1565     1.0  0.24032  0.95470  0.66667  1.0000
  H   H1566     1.0  0.09301  0.95470  0.66667  1.0000
  H   H1567     1.0  0.04530  0.66667  0.90699  1.0000
  H   H1568     1.0  0.04530  0.66667  0.75968  1.0000
  H   H1569     1.0  0.28804  0.66667  0.75968  1.0000
  H   H1570     1.0  0.28804  0.66667  0.90699  1.0000
  H   H1571     1.0  0.09301  0.83333  0.87863  1.0000
  H   H1572     1.0  0.24032  0.83333  0.87863  1.0000
  H   H1573     1.0  0.24032  0.83333  0.78804  1.0000
  H   H1574     1.0  0.04530  0.92634  0.83333  1.0000
  H   H1575     1.0  0.04530  0.74032  0.83333  1.0000
  H   H1576     1.0  0.28804  0.74032  0.83333  1.0000
  H   H1577     1.0  0.28804  0.92634  0.83333  1.0000
  H   H1578     1.0  0.00000  0.87863  0.92634  1.0000
  H   H1579     1.0  0.00000  0.87863  0.74032  1.0000
  H   H1580     1.0  0.00000  0.78804  0.74032  1.0000
  H   H1581     1.0  0.00000  0.92634  0.78804  1.0000
  H   H1582     1.0  0.00000  0.74032  0.78804  1.0000
  H   H1583     1.0  0.00000  0.92634  0.87863  1.0000
  H   H1584     1.0  0.09301  0.87863  0.83333  1.0000
  H   H1585     1.0  0.24032  0.87863  0.83333  1.0000
  H   H1586     1.0  0.24032  0.78804  0.83333  1.0000
  H   H1587     1.0  0.09301  0.78804  0.83333  1.0000
  H   H1588     1.0  0.04530  0.83333  0.92634  1.0000
  H   H1589     1.0  0.28804  0.83333  0.92634  1.0000
  H   H1590     1.0  0.28804  0.83333  0.74032  1.0000
  H   H1591     1.0  0.25968  0.66667  0.87863  1.0000
  H   H1592     1.0  0.07366  0.66667  0.87863  1.0000
  H   H1593     1.0  0.07366  0.66667  0.78804  1.0000
  H   H1594     1.0  0.25968  0.66667  0.78804  1.0000
  H   H1595     1.0  0.21196  0.75968  0.83333  1.0000
  H   H1596     1.0  0.21196  0.90699  0.83333  1.0000
  H   H1597     1.0  0.12137  0.90699  0.83333  1.0000
  H   H1598     1.0  0.12137  0.75968  0.83333  1.0000
  H   H1599     1.0  0.16667  0.71196  0.92634  1.0000
  H   H1600     1.0  0.16667  0.71196  0.74032  1.0000
  H   H1601     1.0  0.16667  0.95470  0.74032  1.0000
  H   H1602     1.0  0.16667  0.95470  0.92634  1.0000
  H   H1603     1.0  0.16667  0.75968  0.78804  1.0000
  H   H1604     1.0  0.16667  0.90699  0.78804  1.0000
  H   H1605     1.0  0.16667  0.90699  0.87863  1.0000
  H   H1606     1.0  0.16667  0.75968  0.87863  1.0000
  H   H1607     1.0  0.25968  0.71196  0.83333  1.0000
  H   H1608     1.0  0.07366  0.71196  0.83333  1.0000
  H   H1609     1.0  0.07366  0.95470  0.83333  1.0000
  H   H1610     1.0  0.25968  0.95470  0.83333  1.0000
  H   H1611     1.0  0.21196  0.66667  0.74032  1.0000
  H   H1612     1.0  0.21196  0.66667  0.92634  1.0000
  H   H1613     1.0  0.12137  0.66667  0.92634  1.0000
  H   H1614     1.0  0.12137  0.66667  0.74032  1.0000
  H   H1615     1.0  0.25968  0.83333  0.71196  1.0000
  H   H1616     1.0  0.07366  0.83333  0.95470  1.0000
  H   H1617     1.0  0.25968  0.83333  0.95470  1.0000
  H   H1618     1.0  0.21196  0.92634  0.66667  1.0000
  H   H1619     1.0  0.21196  0.74032  0.66667  1.0000
  H   H1620     1.0  0.12137  0.74032  0.66667  1.0000
  H   H1621     1.0  0.12137  0.92634  0.66667  1.0000
  H   H1622     1.0  0.16667  0.87863  0.75968  1.0000
  H   H1623     1.0  0.16667  0.87863  0.90699  1.0000
  H   H1624     1.0  0.16667  0.78804  0.90699  1.0000
  H   H1625     1.0  0.16667  0.78804  0.75968  1.0000
  H   H1626     1.0  0.16667  0.92634  0.95470  1.0000
  H   H1627     1.0  0.16667  0.74032  0.95470  1.0000
  H   H1628     1.0  0.16667  0.74032  0.71196  1.0000
  H   H1629     1.0  0.16667  0.92634  0.71196  1.0000
  H   H1630     1.0  0.25968  0.87863  0.66667  1.0000
  H   H1631     1.0  0.07366  0.87863  0.66667  1.0000
  H   H1632     1.0  0.07366  0.78804  0.66667  1.0000
  H   H1633     1.0  0.25968  0.78804  0.66667  1.0000
  H   H1634     1.0  0.21196  0.83333  0.90699  1.0000
  H   H1635     1.0  0.21196  0.83333  0.75968  1.0000
  H   H1636     1.0  0.12137  0.83333  0.90699  1.0000
  Zr  Zr505     1.0  0.37330  0.00000  0.66667  1.0000
  Zr  Zr506     1.0  0.62671  0.00000  0.66667  1.0000
  Zr  Zr507     1.0  0.33333  0.03997  0.66667  1.0000
  Zr  Zr508     1.0  0.33333  0.29338  0.66667  1.0000
  Zr  Zr509     1.0  0.33333  0.00000  0.70663  1.0000
  Zr  Zr510     1.0  0.33333  0.00000  0.96005  1.0000
  Zr  Zr511     1.0  0.37330  0.16667  0.83333  1.0000
  Zr  Zr512     1.0  0.62671  0.16667  0.83333  1.0000
  Zr  Zr513     1.0  0.33333  0.20663  0.83333  1.0000
  Zr  Zr514     1.0  0.33333  0.12670  0.83333  1.0000
  Zr  Zr515     1.0  0.33333  0.16667  0.87330  1.0000
  Zr  Zr516     1.0  0.33333  0.16667  0.79337  1.0000
  Zr  Zr517     1.0  0.53997  0.00000  0.83333  1.0000
  Zr  Zr518     1.0  0.46003  0.00000  0.83333  1.0000
  Zr  Zr519     1.0  0.50000  0.03997  0.83333  1.0000
  Zr  Zr520     1.0  0.50000  0.29338  0.83333  1.0000
  Zr  Zr521     1.0  0.50000  0.00000  0.87330  1.0000
  Zr  Zr522     1.0  0.50000  0.00000  0.79337  1.0000
  Zr  Zr523     1.0  0.53997  0.16667  0.66667  1.0000
  Zr  Zr524     1.0  0.46003  0.16667  0.66667  1.0000
  Zr  Zr525     1.0  0.50000  0.20663  0.66667  1.0000
  Zr  Zr526     1.0  0.50000  0.12670  0.66667  1.0000
  Zr  Zr527     1.0  0.50000  0.16667  0.70663  1.0000
  Zr  Zr528     1.0  0.50000  0.16667  0.96005  1.0000
  O   O2689     1.0  0.39016  0.00000  0.69844  1.0000
  O   O2690     1.0  0.60986  0.00000  0.69844  1.0000
  O   O2691     1.0  0.60986  0.00000  0.96824  1.0000
  O   O2692     1.0  0.39016  0.00000  0.96824  1.0000
  O   O2693     1.0  0.36510  0.05683  0.66667  1.0000
  O   O2694     1.0  0.36510  0.27652  0.66667  1.0000
  O   O2695     1.0  0.63491  0.27652  0.66667  1.0000
  O   O2696     1.0  0.63491  0.05683  0.66667  1.0000
  O   O2697     1.0  0.33333  0.03177  0.72349  1.0000
  O   O2698     1.0  0.33333  0.03177  0.94319  1.0000
  O   O2699     1.0  0.33333  0.30158  0.94319  1.0000
  O   O2700     1.0  0.33333  0.30158  0.72349  1.0000
  O   O2701     1.0  0.33333  0.05683  0.96824  1.0000
  O   O2702     1.0  0.33333  0.27652  0.96824  1.0000
  O   O2703     1.0  0.33333  0.27652  0.69844  1.0000
  O   O2704     1.0  0.33333  0.05683  0.69844  1.0000
  O   O2705     1.0  0.39016  0.03177  0.66667  1.0000
  O   O2706     1.0  0.60986  0.03177  0.66667  1.0000
  O   O2707     1.0  0.60986  0.30158  0.66667  1.0000
  O   O2708     1.0  0.39016  0.30158  0.66667  1.0000
  O   O2709     1.0  0.36510  0.00000  0.94319  1.0000
  O   O2710     1.0  0.36510  0.00000  0.72349  1.0000
  O   O2711     1.0  0.63491  0.00000  0.72349  1.0000
  O   O2712     1.0  0.63491  0.00000  0.94319  1.0000
  O   O2713     1.0  0.39016  0.16667  0.86510  1.0000
  O   O2714     1.0  0.60986  0.16667  0.86510  1.0000
  O   O2715     1.0  0.60986  0.16667  0.80156  1.0000
  O   O2716     1.0  0.39016  0.16667  0.80156  1.0000
  O   O2717     1.0  0.36510  0.22349  0.83333  1.0000
  O   O2718     1.0  0.36510  0.10984  0.83333  1.0000
  O   O2719     1.0  0.63491  0.10984  0.83333  1.0000
  O   O2720     1.0  0.63491  0.22349  0.83333  1.0000
  O   O2721     1.0  0.33333  0.19844  0.89016  1.0000
  O   O2722     1.0  0.33333  0.19844  0.77651  1.0000
  O   O2723     1.0  0.33333  0.13490  0.77651  1.0000
  O   O2724     1.0  0.33333  0.13490  0.89016  1.0000
  O   O2725     1.0  0.33333  0.22349  0.80156  1.0000
  O   O2726     1.0  0.33333  0.10984  0.80156  1.0000
  O   O2727     1.0  0.33333  0.10984  0.86510  1.0000
  O   O2728     1.0  0.33333  0.22349  0.86510  1.0000
  O   O2729     1.0  0.39016  0.19844  0.83333  1.0000
  O   O2730     1.0  0.60986  0.19844  0.83333  1.0000
  O   O2731     1.0  0.60986  0.13490  0.83333  1.0000
  O   O2732     1.0  0.39016  0.13490  0.83333  1.0000
  O   O2733     1.0  0.36510  0.16667  0.77651  1.0000
  O   O2734     1.0  0.36510  0.16667  0.89016  1.0000
  O   O2735     1.0  0.63491  0.16667  0.89016  1.0000
  O   O2736     1.0  0.63491  0.16667  0.77651  1.0000
  O   O2737     1.0  0.55683  0.00000  0.86510  1.0000
  O   O2738     1.0  0.44317  0.00000  0.86510  1.0000
  O   O2739     1.0  0.44317  0.00000  0.80156  1.0000
  O   O2740     1.0  0.55683  0.00000  0.80156  1.0000
  O   O2741     1.0  0.53177  0.05683  0.83333  1.0000
  O   O2742     1.0  0.53177  0.27652  0.83333  1.0000
  O   O2743     1.0  0.46823  0.27652  0.83333  1.0000
  O   O2744     1.0  0.46823  0.05683  0.83333  1.0000
  O   O2745     1.0  0.50000  0.03177  0.89016  1.0000
  O   O2746     1.0  0.50000  0.03177  0.77651  1.0000
  O   O2747     1.0  0.50000  0.30158  0.77651  1.0000
  O   O2748     1.0  0.50000  0.30158  0.89016  1.0000
  O   O2749     1.0  0.50000  0.05683  0.80156  1.0000
  O   O2750     1.0  0.50000  0.27652  0.80156  1.0000
  O   O2751     1.0  0.50000  0.27652  0.86510  1.0000
  O   O2752     1.0  0.50000  0.05683  0.86510  1.0000
  O   O2753     1.0  0.55683  0.03177  0.83333  1.0000
  O   O2754     1.0  0.44317  0.03177  0.83333  1.0000
  O   O2755     1.0  0.44317  0.30158  0.83333  1.0000
  O   O2756     1.0  0.55683  0.30158  0.83333  1.0000
  O   O2757     1.0  0.53177  0.00000  0.77651  1.0000
  O   O2758     1.0  0.53177  0.00000  0.89016  1.0000
  O   O2759     1.0  0.46823  0.00000  0.89016  1.0000
  O   O2760     1.0  0.46823  0.00000  0.77651  1.0000
  O   O2761     1.0  0.55683  0.16667  0.69844  1.0000
  O   O2762     1.0  0.44317  0.16667  0.69844  1.0000
  O   O2763     1.0  0.44317  0.16667  0.96824  1.0000
  O   O2764     1.0  0.55683  0.16667  0.96824  1.0000
  O   O2765     1.0  0.53177  0.22349  0.66667  1.0000
  O   O2766     1.0  0.53177  0.10984  0.66667  1.0000
  O   O2767     1.0  0.46823  0.10984  0.66667  1.0000
  O   O2768     1.0  0.46823  0.22349  0.66667  1.0000
  O   O2769     1.0  0.50000  0.19844  0.72349  1.0000
  O   O2770     1.0  0.50000  0.19844  0.94319  1.0000
  O   O2771     1.0  0.50000  0.13490  0.94319  1.0000
  O   O2772     1.0  0.50000  0.13490  0.72349  1.0000
  O   O2773     1.0  0.50000  0.22349  0.96824  1.0000
  O   O2774     1.0  0.50000  0.10984  0.96824  1.0000
  O   O2775     1.0  0.50000  0.10984  0.69844  1.0000
  O   O2776     1.0  0.50000  0.22349  0.69844  1.0000
  O   O2777     1.0  0.55683  0.19844  0.66667  1.0000
  O   O2778     1.0  0.44317  0.19844  0.66667  1.0000
  O   O2779     1.0  0.44317  0.13490  0.66667  1.0000
  O   O2780     1.0  0.55683  0.13490  0.66667  1.0000
  O   O2781     1.0  0.53177  0.16667  0.94319  1.0000
  O   O2782     1.0  0.53177  0.16667  0.72349  1.0000
  O   O2783     1.0  0.46823  0.16667  0.72349  1.0000
  O   O2784     1.0  0.46823  0.16667  0.94319  1.0000
  O   O2785     1.0  0.35203  0.31464  0.98130  1.0000
  O   O2786     1.0  0.64797  0.01870  0.98130  1.0000
  O   O2787     1.0  0.64797  0.31464  0.68536  1.0000
  O   O2788     1.0  0.35203  0.01870  0.68536  1.0000
  O   O2789     1.0  0.64797  0.01870  0.68536  1.0000
  O   O2790     1.0  0.35203  0.31464  0.68536  1.0000
  O   O2791     1.0  0.64797  0.31464  0.98130  1.0000
  O   O2792     1.0  0.35203  0.01870  0.98130  1.0000
  O   O2793     1.0  0.35203  0.14797  0.81464  1.0000
  O   O2794     1.0  0.64797  0.18536  0.81464  1.0000
  O   O2795     1.0  0.64797  0.14797  0.85203  1.0000
  O   O2796     1.0  0.35203  0.18536  0.85203  1.0000
  O   O2797     1.0  0.64797  0.18536  0.85203  1.0000
  O   O2798     1.0  0.35203  0.14797  0.85203  1.0000
  O   O2799     1.0  0.64797  0.14797  0.81464  1.0000
  O   O2800     1.0  0.35203  0.18536  0.81464  1.0000
  O   O2801     1.0  0.51870  0.31464  0.81464  1.0000
  O   O2802     1.0  0.48130  0.01870  0.81464  1.0000
  O   O2803     1.0  0.48130  0.31464  0.85203  1.0000
  O   O2804     1.0  0.51870  0.01870  0.85203  1.0000
  O   O2805     1.0  0.48130  0.01870  0.85203  1.0000
  O   O2806     1.0  0.51870  0.31464  0.85203  1.0000
  O   O2807     1.0  0.48130  0.31464  0.81464  1.0000
  O   O2808     1.0  0.51870  0.01870  0.81464  1.0000
  O   O2809     1.0  0.51870  0.14797  0.98130  1.0000
  O   O2810     1.0  0.48130  0.18536  0.98130  1.0000
  O   O2811     1.0  0.48130  0.14797  0.68536  1.0000
  O   O2812     1.0  0.51870  0.18536  0.68536  1.0000
  O   O2813     1.0  0.48130  0.18536  0.68536  1.0000
  O   O2814     1.0  0.51870  0.14797  0.68536  1.0000
  O   O2815     1.0  0.48130  0.14797  0.98130  1.0000
  O   O2816     1.0  0.51870  0.18536  0.98130  1.0000
  C   C3463     1.0  0.38454  0.00000  0.94881  1.0000
  C   C3464     1.0  0.61548  0.00000  0.94881  1.0000
  C   C3465     1.0  0.61548  0.00000  0.71787  1.0000
  C   C3466     1.0  0.38454  0.00000  0.71787  1.0000
  C   C3467     1.0  0.61548  0.05121  0.66667  1.0000
  C   C3468     1.0  0.61548  0.28214  0.66667  1.0000
  C   C3469     1.0  0.38454  0.28214  0.66667  1.0000
  C   C3470     1.0  0.38454  0.05121  0.66667  1.0000
  C   C3471     1.0  0.33333  0.28214  0.71787  1.0000
  C   C3472     1.0  0.33333  0.28214  0.94881  1.0000
  C   C3473     1.0  0.33333  0.05121  0.94881  1.0000
  C   C3474     1.0  0.33333  0.05121  0.71787  1.0000
  C   C3475     1.0  0.38454  0.16667  0.78214  1.0000
  C   C3476     1.0  0.61548  0.16667  0.78214  1.0000
  C   C3477     1.0  0.61548  0.16667  0.88454  1.0000
  C   C3478     1.0  0.38454  0.16667  0.88454  1.0000
  C   C3479     1.0  0.61548  0.21787  0.83333  1.0000
  C   C3480     1.0  0.61548  0.11548  0.83333  1.0000
  C   C3481     1.0  0.38454  0.11548  0.83333  1.0000
  C   C3482     1.0  0.38454  0.21787  0.83333  1.0000
  C   C3483     1.0  0.33333  0.11548  0.88454  1.0000
  C   C3484     1.0  0.33333  0.11548  0.78214  1.0000
  C   C3485     1.0  0.33333  0.21787  0.78214  1.0000
  C   C3486     1.0  0.33333  0.21787  0.88454  1.0000
  C   C3487     1.0  0.55121  0.00000  0.78214  1.0000
  C   C3488     1.0  0.44881  0.00000  0.78214  1.0000
  C   C3489     1.0  0.44881  0.00000  0.88454  1.0000
  C   C3490     1.0  0.55121  0.00000  0.88454  1.0000
  C   C3491     1.0  0.44881  0.05121  0.83333  1.0000
  C   C3492     1.0  0.44881  0.28214  0.83333  1.0000
  C   C3493     1.0  0.55121  0.28214  0.83333  1.0000
  C   C3494     1.0  0.55121  0.05121  0.83333  1.0000
  C   C3495     1.0  0.50000  0.28214  0.88454  1.0000
  C   C3496     1.0  0.50000  0.28214  0.78214  1.0000
  C   C3497     1.0  0.50000  0.05121  0.78214  1.0000
  C   C3498     1.0  0.50000  0.05121  0.88454  1.0000
  C   C3499     1.0  0.55121  0.16667  0.94881  1.0000
  C   C3500     1.0  0.44881  0.16667  0.94881  1.0000
  C   C3501     1.0  0.44881  0.16667  0.71787  1.0000
  C   C3502     1.0  0.55121  0.16667  0.71787  1.0000
  C   C3503     1.0  0.44881  0.21787  0.66667  1.0000
  C   C3504     1.0  0.44881  0.11548  0.66667  1.0000
  C   C3505     1.0  0.55121  0.11548  0.66667  1.0000
  C   C3506     1.0  0.55121  0.21787  0.66667  1.0000
  C   C3507     1.0  0.50000  0.11548  0.71787  1.0000
  C   C3508     1.0  0.50000  0.11548  0.94881  1.0000
  C   C3509     1.0  0.50000  0.21787  0.94881  1.0000
  C   C3510     1.0  0.50000  0.21787  0.71787  1.0000
  C   C3511     1.0  0.40167  0.00000  0.73501  1.0000
  C   C3512     1.0  0.59834  0.00000  0.73501  1.0000
  C   C3513     1.0  0.59834  0.00000  0.93167  1.0000
  C   C3514     1.0  0.40167  0.06834  0.66667  1.0000
  C   C3515     1.0  0.40167  0.26501  0.66667  1.0000
  C   C3516     1.0  0.59834  0.26501  0.66667  1.0000
  C   C3517     1.0  0.59834  0.06834  0.66667  1.0000
  C   C3518     1.0  0.33333  0.06834  0.73501  1.0000
  C   C3519     1.0  0.33333  0.26501  0.93167  1.0000
  C   C3520     1.0  0.33333  0.26501  0.73501  1.0000
  C   C3521     1.0  0.40167  0.16667  0.90167  1.0000
  C   C3522     1.0  0.40167  0.16667  0.76501  1.0000
  C   C3523     1.0  0.40167  0.23501  0.83333  1.0000
  C   C3524     1.0  0.59834  0.09834  0.83333  1.0000
  C   C3525     1.0  0.59834  0.23501  0.83333  1.0000
  C   C3526     1.0  0.33333  0.23501  0.90167  1.0000
  C   C3527     1.0  0.33333  0.23501  0.76501  1.0000
  C   C3528     1.0  0.33333  0.09834  0.76501  1.0000
  C   C3529     1.0  0.56834  0.00000  0.90167  1.0000
  C   C3530     1.0  0.43167  0.00000  0.76501  1.0000
  C   C3531     1.0  0.56834  0.00000  0.76501  1.0000
  C   C3532     1.0  0.56834  0.06834  0.83333  1.0000
  C   C3533     1.0  0.56834  0.26501  0.83333  1.0000
  C   C3534     1.0  0.43167  0.26501  0.83333  1.0000
  C   C3535     1.0  0.50000  0.06834  0.76501  1.0000
  C   C3536     1.0  0.50000  0.26501  0.76501  1.0000
  C   C3537     1.0  0.50000  0.26501  0.90167  1.0000
  C   C3538     1.0  0.43167  0.16667  0.73501  1.0000
  C   C3539     1.0  0.43167  0.16667  0.93167  1.0000
  C   C3540     1.0  0.56834  0.23501  0.66667  1.0000
  C   C3541     1.0  0.56834  0.09834  0.66667  1.0000
  C   C3542     1.0  0.43167  0.09834  0.66667  1.0000
  C   C3543     1.0  0.43167  0.23501  0.66667  1.0000
  C   C3544     1.0  0.50000  0.23501  0.73501  1.0000
  C   C3545     1.0  0.50000  0.23501  0.93167  1.0000
  C   C3546     1.0  0.50000  0.09834  0.73501  1.0000
  C   C3547     1.0  0.42250  0.00000  0.72813  1.0000
  C   C3548     1.0  0.57750  0.00000  0.72813  1.0000
  C   C3549     1.0  0.57750  0.00000  0.93853  1.0000
  C   C3550     1.0  0.39480  0.08916  0.66667  1.0000
  C   C3551     1.0  0.39480  0.24417  0.66667  1.0000
  C   C3552     1.0  0.60520  0.24417  0.66667  1.0000
  C   C3553     1.0  0.60520  0.08916  0.66667  1.0000
  C   C3554     1.0  0.33333  0.06147  0.75583  1.0000
  C   C3555     1.0  0.33333  0.27187  0.91084  1.0000
  C   C3556     1.0  0.33333  0.27187  0.75583  1.0000
  C   C3557     1.0  0.33333  0.24417  0.93853  1.0000
  C   C3558     1.0  0.33333  0.24417  0.72813  1.0000
  C   C3559     1.0  0.33333  0.08916  0.72813  1.0000
  C   C3560     1.0  0.42250  0.06147  0.66667  1.0000
  C   C3561     1.0  0.57750  0.06147  0.66667  1.0000
  C   C3562     1.0  0.57750  0.27187  0.66667  1.0000
  C   C3563     1.0  0.42250  0.27187  0.66667  1.0000
  C   C3564     1.0  0.39480  0.00000  0.75583  1.0000
  C   C3565     1.0  0.60520  0.00000  0.75583  1.0000
  C   C3566     1.0  0.60520  0.00000  0.91084  1.0000
  C   C3567     1.0  0.42250  0.16667  0.89480  1.0000
  C   C3568     1.0  0.42250  0.16667  0.77187  1.0000
  C   C3569     1.0  0.39480  0.25585  0.83333  1.0000
  C   C3570     1.0  0.60520  0.07750  0.83333  1.0000
  C   C3571     1.0  0.60520  0.25585  0.83333  1.0000
  C   C3572     1.0  0.33333  0.22813  0.92251  1.0000
  C   C3573     1.0  0.33333  0.22813  0.74417  1.0000
  C   C3574     1.0  0.33333  0.10520  0.74417  1.0000
  C   C3575     1.0  0.33333  0.25585  0.77187  1.0000
  C   C3576     1.0  0.33333  0.07750  0.77187  1.0000
  C   C3577     1.0  0.33333  0.25585  0.89480  1.0000
  C   C3578     1.0  0.42250  0.22813  0.83333  1.0000
  C   C3579     1.0  0.57750  0.22813  0.83333  1.0000
  C   C3580     1.0  0.57750  0.10520  0.83333  1.0000
  C   C3581     1.0  0.39480  0.16667  0.74417  1.0000
  C   C3582     1.0  0.39480  0.16667  0.92251  1.0000
  C   C3583     1.0  0.58918  0.00000  0.89480  1.0000
  C   C3584     1.0  0.41084  0.00000  0.77187  1.0000
  C   C3585     1.0  0.58918  0.00000  0.77187  1.0000
  C   C3586     1.0  0.56147  0.08916  0.83333  1.0000
  C   C3587     1.0  0.56147  0.24417  0.83333  1.0000
  C   C3588     1.0  0.43853  0.24417  0.83333  1.0000
  C   C3589     1.0  0.50000  0.06147  0.74417  1.0000
  C   C3590     1.0  0.50000  0.27187  0.74417  1.0000
  C   C3591     1.0  0.50000  0.27187  0.92251  1.0000
  C   C3592     1.0  0.50000  0.08916  0.77187  1.0000
  C   C3593     1.0  0.50000  0.24417  0.77187  1.0000
  C   C3594     1.0  0.50000  0.24417  0.89480  1.0000
  C   C3595     1.0  0.58918  0.06147  0.83333  1.0000
  C   C3596     1.0  0.41084  0.27187  0.83333  1.0000
  C   C3597     1.0  0.58918  0.27187  0.83333  1.0000
  C   C3598     1.0  0.56147  0.00000  0.74417  1.0000
  C   C3599     1.0  0.56147  0.00000  0.92251  1.0000
  C   C3600     1.0  0.43853  0.00000  0.74417  1.0000
  C   C3601     1.0  0.41084  0.16667  0.72813  1.0000
  C   C3602     1.0  0.41084  0.16667  0.93853  1.0000
  C   C3603     1.0  0.56147  0.25585  0.66667  1.0000
  C   C3604     1.0  0.56147  0.07750  0.66667  1.0000
  C   C3605     1.0  0.43853  0.07750  0.66667  1.0000
  C   C3606     1.0  0.43853  0.25585  0.66667  1.0000
  C   C3607     1.0  0.50000  0.22813  0.75583  1.0000
  C   C3608     1.0  0.50000  0.22813  0.91084  1.0000
  C   C3609     1.0  0.50000  0.10520  0.75583  1.0000
  C   C3610     1.0  0.50000  0.25585  0.93853  1.0000
  C   C3611     1.0  0.50000  0.07750  0.72813  1.0000
  C   C3612     1.0  0.50000  0.25585  0.72813  1.0000
  C   C3613     1.0  0.58918  0.22813  0.66667  1.0000
  C   C3614     1.0  0.41084  0.22813  0.66667  1.0000
  C   C3615     1.0  0.41084  0.10520  0.66667  1.0000
  C   C3616     1.0  0.58918  0.10520  0.66667  1.0000
  C   C3617     1.0  0.43853  0.16667  0.75583  1.0000
  C   C3618     1.0  0.43853  0.16667  0.91084  1.0000
  H   H1637     1.0  0.42634  0.00000  0.71196  1.0000
  H   H1638     1.0  0.57366  0.00000  0.71196  1.0000
  H   H1639     1.0  0.57366  0.00000  0.95470  1.0000
  H   H1640     1.0  0.37863  0.09301  0.66667  1.0000
  H   H1641     1.0  0.37863  0.24032  0.66667  1.0000
  H   H1642     1.0  0.62137  0.24032  0.66667  1.0000
  H   H1643     1.0  0.62137  0.09301  0.66667  1.0000
  H   H1644     1.0  0.33333  0.04530  0.75968  1.0000
  H   H1645     1.0  0.33333  0.28804  0.90699  1.0000
  H   H1646     1.0  0.33333  0.28804  0.75968  1.0000
  H   H1647     1.0  0.33333  0.24032  0.95470  1.0000
  H   H1648     1.0  0.33333  0.24032  0.71196  1.0000
  H   H1649     1.0  0.33333  0.09301  0.71196  1.0000
  H   H1650     1.0  0.42634  0.04530  0.66667  1.0000
  H   H1651     1.0  0.57366  0.04530  0.66667  1.0000
  H   H1652     1.0  0.57366  0.28804  0.66667  1.0000
  H   H1653     1.0  0.42634  0.28804  0.66667  1.0000
  H   H1654     1.0  0.37863  0.00000  0.75968  1.0000
  H   H1655     1.0  0.62137  0.00000  0.75968  1.0000
  H   H1656     1.0  0.62137  0.00000  0.90699  1.0000
  H   H1657     1.0  0.42634  0.16667  0.87863  1.0000
  H   H1658     1.0  0.42634  0.16667  0.78804  1.0000
  H   H1659     1.0  0.37863  0.25968  0.83333  1.0000
  H   H1660     1.0  0.62137  0.07366  0.83333  1.0000
  H   H1661     1.0  0.62137  0.25968  0.83333  1.0000
  H   H1662     1.0  0.33333  0.21196  0.92634  1.0000
  H   H1663     1.0  0.33333  0.21196  0.74032  1.0000
  H   H1664     1.0  0.33333  0.12137  0.74032  1.0000
  H   H1665     1.0  0.33333  0.25968  0.78804  1.0000
  H   H1666     1.0  0.33333  0.07366  0.78804  1.0000
  H   H1667     1.0  0.33333  0.25968  0.87863  1.0000
  H   H1668     1.0  0.42634  0.21196  0.83333  1.0000
  H   H1669     1.0  0.57366  0.21196  0.83333  1.0000
  H   H1670     1.0  0.57366  0.12137  0.83333  1.0000
  H   H1671     1.0  0.37863  0.16667  0.74032  1.0000
  H   H1672     1.0  0.37863  0.16667  0.92634  1.0000
  H   H1673     1.0  0.59301  0.00000  0.87863  1.0000
  H   H1674     1.0  0.40699  0.00000  0.78804  1.0000
  H   H1675     1.0  0.59301  0.00000  0.78804  1.0000
  H   H1676     1.0  0.54530  0.09301  0.83333  1.0000
  H   H1677     1.0  0.54530  0.24032  0.83333  1.0000
  H   H1678     1.0  0.45470  0.24032  0.83333  1.0000
  H   H1679     1.0  0.50000  0.04530  0.74032  1.0000
  H   H1680     1.0  0.50000  0.28804  0.74032  1.0000
  H   H1681     1.0  0.50000  0.28804  0.92634  1.0000
  H   H1682     1.0  0.50000  0.09301  0.78804  1.0000
  H   H1683     1.0  0.50000  0.24032  0.78804  1.0000
  H   H1684     1.0  0.50000  0.24032  0.87863  1.0000
  H   H1685     1.0  0.59301  0.04530  0.83333  1.0000
  H   H1686     1.0  0.40699  0.28804  0.83333  1.0000
  H   H1687     1.0  0.59301  0.28804  0.83333  1.0000
  H   H1688     1.0  0.54530  0.00000  0.74032  1.0000
  H   H1689     1.0  0.54530  0.00000  0.92634  1.0000
  H   H1690     1.0  0.45470  0.00000  0.74032  1.0000
  H   H1691     1.0  0.40699  0.16667  0.71196  1.0000
  H   H1692     1.0  0.40699  0.16667  0.95470  1.0000
  H   H1693     1.0  0.54530  0.25968  0.66667  1.0000
  H   H1694     1.0  0.54530  0.07366  0.66667  1.0000
  H   H1695     1.0  0.45470  0.07366  0.66667  1.0000
  H   H1696     1.0  0.45470  0.25968  0.66667  1.0000
  H   H1697     1.0  0.50000  0.21196  0.75968  1.0000
  H   H1698     1.0  0.50000  0.21196  0.90699  1.0000
  H   H1699     1.0  0.50000  0.12137  0.75968  1.0000
  H   H1700     1.0  0.50000  0.25968  0.95470  1.0000
  H   H1701     1.0  0.50000  0.07366  0.71196  1.0000
  H   H1702     1.0  0.50000  0.25968  0.71196  1.0000
  H   H1703     1.0  0.59301  0.21196  0.66667  1.0000
  H   H1704     1.0  0.40699  0.21196  0.66667  1.0000
  H   H1705     1.0  0.40699  0.12137  0.66667  1.0000
  H   H1706     1.0  0.59301  0.12137  0.66667  1.0000
  H   H1707     1.0  0.45470  0.16667  0.75968  1.0000
  H   H1708     1.0  0.45470  0.16667  0.90699  1.0000
  Zr  Zr529     1.0  0.37330  0.33333  0.66667  1.0000
  Zr  Zr530     1.0  0.62671  0.33333  0.66667  1.0000
  Zr  Zr531     1.0  0.33333  0.37330  0.66667  1.0000
  Zr  Zr532     1.0  0.33333  0.62671  0.66667  1.0000
  Zr  Zr533     1.0  0.33333  0.33333  0.70663  1.0000
  Zr  Zr534     1.0  0.33333  0.33333  0.96005  1.0000
  Zr  Zr535     1.0  0.37330  0.50000  0.83333  1.0000
  Zr  Zr536     1.0  0.62671  0.50000  0.83333  1.0000
  Zr  Zr537     1.0  0.33333  0.53997  0.83333  1.0000
  Zr  Zr538     1.0  0.33333  0.46003  0.83333  1.0000
  Zr  Zr539     1.0  0.33333  0.50000  0.87330  1.0000
  Zr  Zr540     1.0  0.33333  0.50000  0.79337  1.0000
  Zr  Zr541     1.0  0.53997  0.33333  0.83333  1.0000
  Zr  Zr542     1.0  0.46003  0.33333  0.83333  1.0000
  Zr  Zr543     1.0  0.50000  0.37330  0.83333  1.0000
  Zr  Zr544     1.0  0.50000  0.62671  0.83333  1.0000
  Zr  Zr545     1.0  0.50000  0.33333  0.87330  1.0000
  Zr  Zr546     1.0  0.50000  0.33333  0.79337  1.0000
  Zr  Zr547     1.0  0.53997  0.50000  0.66667  1.0000
  Zr  Zr548     1.0  0.46003  0.50000  0.66667  1.0000
  Zr  Zr549     1.0  0.50000  0.53997  0.66667  1.0000
  Zr  Zr550     1.0  0.50000  0.46003  0.66667  1.0000
  Zr  Zr551     1.0  0.50000  0.50000  0.70663  1.0000
  Zr  Zr552     1.0  0.50000  0.50000  0.96005  1.0000
  O   O2817     1.0  0.39016  0.33333  0.69844  1.0000
  O   O2818     1.0  0.60986  0.33333  0.69844  1.0000
  O   O2819     1.0  0.60986  0.33333  0.96824  1.0000
  O   O2820     1.0  0.39016  0.33333  0.96824  1.0000
  O   O2821     1.0  0.36510  0.39016  0.66667  1.0000
  O   O2822     1.0  0.36510  0.60986  0.66667  1.0000
  O   O2823     1.0  0.63491  0.60986  0.66667  1.0000
  O   O2824     1.0  0.63491  0.39016  0.66667  1.0000
  O   O2825     1.0  0.33333  0.36510  0.72349  1.0000
  O   O2826     1.0  0.33333  0.36510  0.94319  1.0000
  O   O2827     1.0  0.33333  0.63491  0.94319  1.0000
  O   O2828     1.0  0.33333  0.63491  0.72349  1.0000
  O   O2829     1.0  0.33333  0.39016  0.96824  1.0000
  O   O2830     1.0  0.33333  0.60986  0.96824  1.0000
  O   O2831     1.0  0.33333  0.60986  0.69844  1.0000
  O   O2832     1.0  0.33333  0.39016  0.69844  1.0000
  O   O2833     1.0  0.39016  0.36510  0.66667  1.0000
  O   O2834     1.0  0.60986  0.36510  0.66667  1.0000
  O   O2835     1.0  0.60986  0.63491  0.66667  1.0000
  O   O2836     1.0  0.39016  0.63491  0.66667  1.0000
  O   O2837     1.0  0.36510  0.33333  0.94319  1.0000
  O   O2838     1.0  0.36510  0.33333  0.72349  1.0000
  O   O2839     1.0  0.63491  0.33333  0.72349  1.0000
  O   O2840     1.0  0.63491  0.33333  0.94319  1.0000
  O   O2841     1.0  0.39016  0.50000  0.86510  1.0000
  O   O2842     1.0  0.60986  0.50000  0.86510  1.0000
  O   O2843     1.0  0.60986  0.50000  0.80156  1.0000
  O   O2844     1.0  0.39016  0.50000  0.80156  1.0000
  O   O2845     1.0  0.36510  0.55683  0.83333  1.0000
  O   O2846     1.0  0.36510  0.44317  0.83333  1.0000
  O   O2847     1.0  0.63491  0.44317  0.83333  1.0000
  O   O2848     1.0  0.63491  0.55683  0.83333  1.0000
  O   O2849     1.0  0.33333  0.53177  0.89016  1.0000
  O   O2850     1.0  0.33333  0.53177  0.77651  1.0000
  O   O2851     1.0  0.33333  0.46823  0.77651  1.0000
  O   O2852     1.0  0.33333  0.46823  0.89016  1.0000
  O   O2853     1.0  0.33333  0.55683  0.80156  1.0000
  O   O2854     1.0  0.33333  0.44317  0.80156  1.0000
  O   O2855     1.0  0.33333  0.44317  0.86510  1.0000
  O   O2856     1.0  0.33333  0.55683  0.86510  1.0000
  O   O2857     1.0  0.39016  0.53177  0.83333  1.0000
  O   O2858     1.0  0.60986  0.53177  0.83333  1.0000
  O   O2859     1.0  0.60986  0.46823  0.83333  1.0000
  O   O2860     1.0  0.39016  0.46823  0.83333  1.0000
  O   O2861     1.0  0.36510  0.50000  0.77651  1.0000
  O   O2862     1.0  0.36510  0.50000  0.89016  1.0000
  O   O2863     1.0  0.63491  0.50000  0.89016  1.0000
  O   O2864     1.0  0.63491  0.50000  0.77651  1.0000
  O   O2865     1.0  0.55683  0.33333  0.86510  1.0000
  O   O2866     1.0  0.44317  0.33333  0.86510  1.0000
  O   O2867     1.0  0.44317  0.33333  0.80156  1.0000
  O   O2868     1.0  0.55683  0.33333  0.80156  1.0000
  O   O2869     1.0  0.53177  0.39016  0.83333  1.0000
  O   O2870     1.0  0.53177  0.60986  0.83333  1.0000
  O   O2871     1.0  0.46823  0.60986  0.83333  1.0000
  O   O2872     1.0  0.46823  0.39016  0.83333  1.0000
  O   O2873     1.0  0.50000  0.36510  0.89016  1.0000
  O   O2874     1.0  0.50000  0.36510  0.77651  1.0000
  O   O2875     1.0  0.50000  0.63491  0.77651  1.0000
  O   O2876     1.0  0.50000  0.63491  0.89016  1.0000
  O   O2877     1.0  0.50000  0.39016  0.80156  1.0000
  O   O2878     1.0  0.50000  0.60986  0.80156  1.0000
  O   O2879     1.0  0.50000  0.60986  0.86510  1.0000
  O   O2880     1.0  0.50000  0.39016  0.86510  1.0000
  O   O2881     1.0  0.55683  0.36510  0.83333  1.0000
  O   O2882     1.0  0.44317  0.36510  0.83333  1.0000
  O   O2883     1.0  0.44317  0.63491  0.83333  1.0000
  O   O2884     1.0  0.55683  0.63491  0.83333  1.0000
  O   O2885     1.0  0.53177  0.33333  0.77651  1.0000
  O   O2886     1.0  0.53177  0.33333  0.89016  1.0000
  O   O2887     1.0  0.46823  0.33333  0.89016  1.0000
  O   O2888     1.0  0.46823  0.33333  0.77651  1.0000
  O   O2889     1.0  0.55683  0.50000  0.69844  1.0000
  O   O2890     1.0  0.44317  0.50000  0.69844  1.0000
  O   O2891     1.0  0.44317  0.50000  0.96824  1.0000
  O   O2892     1.0  0.55683  0.50000  0.96824  1.0000
  O   O2893     1.0  0.53177  0.55683  0.66667  1.0000
  O   O2894     1.0  0.53177  0.44317  0.66667  1.0000
  O   O2895     1.0  0.46823  0.44317  0.66667  1.0000
  O   O2896     1.0  0.46823  0.55683  0.66667  1.0000
  O   O2897     1.0  0.50000  0.53177  0.72349  1.0000
  O   O2898     1.0  0.50000  0.53177  0.94319  1.0000
  O   O2899     1.0  0.50000  0.46823  0.94319  1.0000
  O   O2900     1.0  0.50000  0.46823  0.72349  1.0000
  O   O2901     1.0  0.50000  0.55683  0.96824  1.0000
  O   O2902     1.0  0.50000  0.44317  0.96824  1.0000
  O   O2903     1.0  0.50000  0.44317  0.69844  1.0000
  O   O2904     1.0  0.50000  0.55683  0.69844  1.0000
  O   O2905     1.0  0.55683  0.53177  0.66667  1.0000
  O   O2906     1.0  0.44317  0.53177  0.66667  1.0000
  O   O2907     1.0  0.44317  0.46823  0.66667  1.0000
  O   O2908     1.0  0.55683  0.46823  0.66667  1.0000
  O   O2909     1.0  0.53177  0.50000  0.94319  1.0000
  O   O2910     1.0  0.53177  0.50000  0.72349  1.0000
  O   O2911     1.0  0.46823  0.50000  0.72349  1.0000
  O   O2912     1.0  0.46823  0.50000  0.94319  1.0000
  O   O2913     1.0  0.35203  0.64797  0.98130  1.0000
  O   O2914     1.0  0.64797  0.35203  0.98130  1.0000
  O   O2915     1.0  0.64797  0.64797  0.68536  1.0000
  O   O2916     1.0  0.35203  0.35203  0.68536  1.0000
  O   O2917     1.0  0.64797  0.35203  0.68536  1.0000
  O   O2918     1.0  0.35203  0.64797  0.68536  1.0000
  O   O2919     1.0  0.64797  0.64797  0.98130  1.0000
  O   O2920     1.0  0.35203  0.35203  0.98130  1.0000
  O   O2921     1.0  0.35203  0.48130  0.81464  1.0000
  O   O2922     1.0  0.64797  0.51870  0.81464  1.0000
  O   O2923     1.0  0.64797  0.48130  0.85203  1.0000
  O   O2924     1.0  0.35203  0.51870  0.85203  1.0000
  O   O2925     1.0  0.64797  0.51870  0.85203  1.0000
  O   O2926     1.0  0.35203  0.48130  0.85203  1.0000
  O   O2927     1.0  0.64797  0.48130  0.81464  1.0000
  O   O2928     1.0  0.35203  0.51870  0.81464  1.0000
  O   O2929     1.0  0.51870  0.64797  0.81464  1.0000
  O   O2930     1.0  0.48130  0.35203  0.81464  1.0000
  O   O2931     1.0  0.48130  0.64797  0.85203  1.0000
  O   O2932     1.0  0.51870  0.35203  0.85203  1.0000
  O   O2933     1.0  0.48130  0.35203  0.85203  1.0000
  O   O2934     1.0  0.51870  0.64797  0.85203  1.0000
  O   O2935     1.0  0.48130  0.64797  0.81464  1.0000
  O   O2936     1.0  0.51870  0.35203  0.81464  1.0000
  O   O2937     1.0  0.51870  0.48130  0.98130  1.0000
  O   O2938     1.0  0.48130  0.51870  0.98130  1.0000
  O   O2939     1.0  0.48130  0.48130  0.68536  1.0000
  O   O2940     1.0  0.51870  0.51870  0.68536  1.0000
  O   O2941     1.0  0.48130  0.51870  0.68536  1.0000
  O   O2942     1.0  0.51870  0.48130  0.68536  1.0000
  O   O2943     1.0  0.48130  0.48130  0.98130  1.0000
  O   O2944     1.0  0.51870  0.51870  0.98130  1.0000
  C   C3619     1.0  0.38454  0.33333  0.94881  1.0000
  C   C3620     1.0  0.61548  0.33333  0.94881  1.0000
  C   C3621     1.0  0.61548  0.33333  0.71787  1.0000
  C   C3622     1.0  0.38454  0.33333  0.71787  1.0000
  C   C3623     1.0  0.61548  0.38454  0.66667  1.0000
  C   C3624     1.0  0.61548  0.61548  0.66667  1.0000
  C   C3625     1.0  0.38454  0.61548  0.66667  1.0000
  C   C3626     1.0  0.38454  0.38454  0.66667  1.0000
  C   C3627     1.0  0.33333  0.61548  0.71787  1.0000
  C   C3628     1.0  0.33333  0.61548  0.94881  1.0000
  C   C3629     1.0  0.33333  0.38454  0.94881  1.0000
  C   C3630     1.0  0.33333  0.38454  0.71787  1.0000
  C   C3631     1.0  0.38454  0.50000  0.78214  1.0000
  C   C3632     1.0  0.61548  0.50000  0.78214  1.0000
  C   C3633     1.0  0.61548  0.50000  0.88454  1.0000
  C   C3634     1.0  0.38454  0.50000  0.88454  1.0000
  C   C3635     1.0  0.61548  0.55121  0.83333  1.0000
  C   C3636     1.0  0.61548  0.44881  0.83333  1.0000
  C   C3637     1.0  0.38454  0.44881  0.83333  1.0000
  C   C3638     1.0  0.38454  0.55121  0.83333  1.0000
  C   C3639     1.0  0.33333  0.44881  0.88454  1.0000
  C   C3640     1.0  0.33333  0.44881  0.78214  1.0000
  C   C3641     1.0  0.33333  0.55121  0.78214  1.0000
  C   C3642     1.0  0.33333  0.55121  0.88454  1.0000
  C   C3643     1.0  0.55121  0.33333  0.78214  1.0000
  C   C3644     1.0  0.44881  0.33333  0.78214  1.0000
  C   C3645     1.0  0.44881  0.33333  0.88454  1.0000
  C   C3646     1.0  0.55121  0.33333  0.88454  1.0000
  C   C3647     1.0  0.44881  0.38454  0.83333  1.0000
  C   C3648     1.0  0.44881  0.61548  0.83333  1.0000
  C   C3649     1.0  0.55121  0.61548  0.83333  1.0000
  C   C3650     1.0  0.55121  0.38454  0.83333  1.0000
  C   C3651     1.0  0.50000  0.61548  0.88454  1.0000
  C   C3652     1.0  0.50000  0.61548  0.78214  1.0000
  C   C3653     1.0  0.50000  0.38454  0.78214  1.0000
  C   C3654     1.0  0.50000  0.38454  0.88454  1.0000
  C   C3655     1.0  0.55121  0.50000  0.94881  1.0000
  C   C3656     1.0  0.44881  0.50000  0.94881  1.0000
  C   C3657     1.0  0.44881  0.50000  0.71787  1.0000
  C   C3658     1.0  0.55121  0.50000  0.71787  1.0000
  C   C3659     1.0  0.44881  0.55121  0.66667  1.0000
  C   C3660     1.0  0.44881  0.44881  0.66667  1.0000
  C   C3661     1.0  0.55121  0.44881  0.66667  1.0000
  C   C3662     1.0  0.55121  0.55121  0.66667  1.0000
  C   C3663     1.0  0.50000  0.44881  0.71787  1.0000
  C   C3664     1.0  0.50000  0.44881  0.94881  1.0000
  C   C3665     1.0  0.50000  0.55121  0.94881  1.0000
  C   C3666     1.0  0.50000  0.55121  0.71787  1.0000
  C   C3667     1.0  0.40167  0.33333  0.73501  1.0000
  C   C3668     1.0  0.59834  0.33333  0.73501  1.0000
  C   C3669     1.0  0.59834  0.33333  0.93167  1.0000
  C   C3670     1.0  0.40167  0.33333  0.93167  1.0000
  C   C3671     1.0  0.40167  0.40167  0.66667  1.0000
  C   C3672     1.0  0.40167  0.59834  0.66667  1.0000
  C   C3673     1.0  0.59834  0.59834  0.66667  1.0000
  C   C3674     1.0  0.59834  0.40167  0.66667  1.0000
  C   C3675     1.0  0.33333  0.40167  0.73501  1.0000
  C   C3676     1.0  0.33333  0.40167  0.93167  1.0000
  C   C3677     1.0  0.33333  0.59834  0.93167  1.0000
  C   C3678     1.0  0.33333  0.59834  0.73501  1.0000
  C   C3679     1.0  0.40167  0.50000  0.90167  1.0000
  C   C3680     1.0  0.59834  0.50000  0.90167  1.0000
  C   C3681     1.0  0.59834  0.50000  0.76501  1.0000
  C   C3682     1.0  0.40167  0.50000  0.76501  1.0000
  C   C3683     1.0  0.40167  0.56834  0.83333  1.0000
  C   C3684     1.0  0.40167  0.43167  0.83333  1.0000
  C   C3685     1.0  0.59834  0.56834  0.83333  1.0000
  C   C3686     1.0  0.33333  0.56834  0.90167  1.0000
  C   C3687     1.0  0.33333  0.56834  0.76501  1.0000
  C   C3688     1.0  0.33333  0.43167  0.76501  1.0000
  C   C3689     1.0  0.33333  0.43167  0.90167  1.0000
  C   C3690     1.0  0.56834  0.33333  0.90167  1.0000
  C   C3691     1.0  0.43167  0.33333  0.90167  1.0000
  C   C3692     1.0  0.43167  0.33333  0.76501  1.0000
  C   C3693     1.0  0.56834  0.33333  0.76501  1.0000
  C   C3694     1.0  0.56834  0.59834  0.83333  1.0000
  C   C3695     1.0  0.43167  0.59834  0.83333  1.0000
  C   C3696     1.0  0.43167  0.40167  0.83333  1.0000
  C   C3697     1.0  0.50000  0.40167  0.90167  1.0000
  C   C3698     1.0  0.50000  0.40167  0.76501  1.0000
  C   C3699     1.0  0.50000  0.59834  0.76501  1.0000
  C   C3700     1.0  0.50000  0.59834  0.90167  1.0000
  C   C3701     1.0  0.56834  0.50000  0.73501  1.0000
  C   C3702     1.0  0.43167  0.50000  0.73501  1.0000
  C   C3703     1.0  0.43167  0.50000  0.93167  1.0000
  C   C3704     1.0  0.56834  0.50000  0.93167  1.0000
  C   C3705     1.0  0.56834  0.56834  0.66667  1.0000
  C   C3706     1.0  0.56834  0.43167  0.66667  1.0000
  C   C3707     1.0  0.43167  0.43167  0.66667  1.0000
  C   C3708     1.0  0.43167  0.56834  0.66667  1.0000
  C   C3709     1.0  0.50000  0.56834  0.73501  1.0000
  C   C3710     1.0  0.50000  0.56834  0.93167  1.0000
  C   C3711     1.0  0.50000  0.43167  0.93167  1.0000
  C   C3712     1.0  0.50000  0.43167  0.73501  1.0000
  C   C3713     1.0  0.42250  0.33333  0.72813  1.0000
  C   C3714     1.0  0.57750  0.33333  0.72813  1.0000
  C   C3715     1.0  0.57750  0.33333  0.93853  1.0000
  C   C3716     1.0  0.42250  0.33333  0.93853  1.0000
  C   C3717     1.0  0.39480  0.42250  0.66667  1.0000
  C   C3718     1.0  0.39480  0.57750  0.66667  1.0000
  C   C3719     1.0  0.60520  0.57750  0.66667  1.0000
  C   C3720     1.0  0.60520  0.42250  0.66667  1.0000
  C   C3721     1.0  0.33333  0.39480  0.75583  1.0000
  C   C3722     1.0  0.33333  0.39480  0.91084  1.0000
  C   C3723     1.0  0.33333  0.60520  0.91084  1.0000
  C   C3724     1.0  0.33333  0.60520  0.75583  1.0000
  C   C3725     1.0  0.33333  0.42250  0.93853  1.0000
  C   C3726     1.0  0.33333  0.57750  0.93853  1.0000
  C   C3727     1.0  0.33333  0.57750  0.72813  1.0000
  C   C3728     1.0  0.33333  0.42250  0.72813  1.0000
  C   C3729     1.0  0.42250  0.39480  0.66667  1.0000
  C   C3730     1.0  0.57750  0.39480  0.66667  1.0000
  C   C3731     1.0  0.57750  0.60520  0.66667  1.0000
  C   C3732     1.0  0.42250  0.60520  0.66667  1.0000
  C   C3733     1.0  0.39480  0.33333  0.91084  1.0000
  C   C3734     1.0  0.39480  0.33333  0.75583  1.0000
  C   C3735     1.0  0.60520  0.33333  0.75583  1.0000
  C   C3736     1.0  0.60520  0.33333  0.91084  1.0000
  C   C3737     1.0  0.42250  0.50000  0.89480  1.0000
  C   C3738     1.0  0.57750  0.50000  0.89480  1.0000
  C   C3739     1.0  0.57750  0.50000  0.77187  1.0000
  C   C3740     1.0  0.42250  0.50000  0.77187  1.0000
  C   C3741     1.0  0.39480  0.58918  0.83333  1.0000
  C   C3742     1.0  0.39480  0.41084  0.83333  1.0000
  C   C3743     1.0  0.60520  0.58918  0.83333  1.0000
  C   C3744     1.0  0.33333  0.56147  0.92251  1.0000
  C   C3745     1.0  0.33333  0.56147  0.74417  1.0000
  C   C3746     1.0  0.33333  0.43853  0.74417  1.0000
  C   C3747     1.0  0.33333  0.43853  0.92251  1.0000
  C   C3748     1.0  0.33333  0.58918  0.77187  1.0000
  C   C3749     1.0  0.33333  0.41084  0.77187  1.0000
  C   C3750     1.0  0.33333  0.41084  0.89480  1.0000
  C   C3751     1.0  0.33333  0.58918  0.89480  1.0000
  C   C3752     1.0  0.42250  0.56147  0.83333  1.0000
  C   C3753     1.0  0.57750  0.56147  0.83333  1.0000
  C   C3754     1.0  0.42250  0.43853  0.83333  1.0000
  C   C3755     1.0  0.39480  0.50000  0.74417  1.0000
  C   C3756     1.0  0.39480  0.50000  0.92251  1.0000
  C   C3757     1.0  0.60520  0.50000  0.92251  1.0000
  C   C3758     1.0  0.60520  0.50000  0.74417  1.0000
  C   C3759     1.0  0.58918  0.33333  0.89480  1.0000
  C   C3760     1.0  0.41084  0.33333  0.89480  1.0000
  C   C3761     1.0  0.41084  0.33333  0.77187  1.0000
  C   C3762     1.0  0.58918  0.33333  0.77187  1.0000
  C   C3763     1.0  0.56147  0.57750  0.83333  1.0000
  C   C3764     1.0  0.43853  0.57750  0.83333  1.0000
  C   C3765     1.0  0.43853  0.42250  0.83333  1.0000
  C   C3766     1.0  0.50000  0.39480  0.92251  1.0000
  C   C3767     1.0  0.50000  0.39480  0.74417  1.0000
  C   C3768     1.0  0.50000  0.60520  0.74417  1.0000
  C   C3769     1.0  0.50000  0.60520  0.92251  1.0000
  C   C3770     1.0  0.50000  0.42250  0.77187  1.0000
  C   C3771     1.0  0.50000  0.57750  0.77187  1.0000
  C   C3772     1.0  0.50000  0.57750  0.89480  1.0000
  C   C3773     1.0  0.50000  0.42250  0.89480  1.0000
  C   C3774     1.0  0.41084  0.39480  0.83333  1.0000
  C   C3775     1.0  0.41084  0.60520  0.83333  1.0000
  C   C3776     1.0  0.58918  0.60520  0.83333  1.0000
  C   C3777     1.0  0.56147  0.33333  0.74417  1.0000
  C   C3778     1.0  0.56147  0.33333  0.92251  1.0000
  C   C3779     1.0  0.43853  0.33333  0.92251  1.0000
  C   C3780     1.0  0.43853  0.33333  0.74417  1.0000
  C   C3781     1.0  0.58918  0.50000  0.72813  1.0000
  C   C3782     1.0  0.41084  0.50000  0.72813  1.0000
  C   C3783     1.0  0.41084  0.50000  0.93853  1.0000
  C   C3784     1.0  0.58918  0.50000  0.93853  1.0000
  C   C3785     1.0  0.56147  0.58918  0.66667  1.0000
  C   C3786     1.0  0.56147  0.41084  0.66667  1.0000
  C   C3787     1.0  0.43853  0.41084  0.66667  1.0000
  C   C3788     1.0  0.43853  0.58918  0.66667  1.0000
  C   C3789     1.0  0.50000  0.56147  0.75583  1.0000
  C   C3790     1.0  0.50000  0.56147  0.91084  1.0000
  C   C3791     1.0  0.50000  0.43853  0.91084  1.0000
  C   C3792     1.0  0.50000  0.43853  0.75583  1.0000
  C   C3793     1.0  0.50000  0.58918  0.93853  1.0000
  C   C3794     1.0  0.50000  0.41084  0.93853  1.0000
  C   C3795     1.0  0.50000  0.41084  0.72813  1.0000
  C   C3796     1.0  0.50000  0.58918  0.72813  1.0000
  C   C3797     1.0  0.58918  0.56147  0.66667  1.0000
  C   C3798     1.0  0.41084  0.56147  0.66667  1.0000
  C   C3799     1.0  0.41084  0.43853  0.66667  1.0000
  C   C3800     1.0  0.58918  0.43853  0.66667  1.0000
  C   C3801     1.0  0.56147  0.50000  0.91084  1.0000
  C   C3802     1.0  0.56147  0.50000  0.75583  1.0000
  C   C3803     1.0  0.43853  0.50000  0.75583  1.0000
  C   C3804     1.0  0.43853  0.50000  0.91084  1.0000
  H   H1709     1.0  0.42634  0.33333  0.71196  1.0000
  H   H1710     1.0  0.57366  0.33333  0.71196  1.0000
  H   H1711     1.0  0.57366  0.33333  0.95470  1.0000
  H   H1712     1.0  0.42634  0.33333  0.95470  1.0000
  H   H1713     1.0  0.37863  0.42634  0.66667  1.0000
  H   H1714     1.0  0.37863  0.57366  0.66667  1.0000
  H   H1715     1.0  0.62137  0.57366  0.66667  1.0000
  H   H1716     1.0  0.62137  0.42634  0.66667  1.0000
  H   H1717     1.0  0.33333  0.37863  0.75968  1.0000
  H   H1718     1.0  0.33333  0.37863  0.90699  1.0000
  H   H1719     1.0  0.33333  0.62137  0.90699  1.0000
  H   H1720     1.0  0.33333  0.62137  0.75968  1.0000
  H   H1721     1.0  0.33333  0.42634  0.95470  1.0000
  H   H1722     1.0  0.33333  0.57366  0.95470  1.0000
  H   H1723     1.0  0.33333  0.57366  0.71196  1.0000
  H   H1724     1.0  0.33333  0.42634  0.71196  1.0000
  H   H1725     1.0  0.42634  0.37863  0.66667  1.0000
  H   H1726     1.0  0.57366  0.37863  0.66667  1.0000
  H   H1727     1.0  0.57366  0.62137  0.66667  1.0000
  H   H1728     1.0  0.42634  0.62137  0.66667  1.0000
  H   H1729     1.0  0.37863  0.33333  0.90699  1.0000
  H   H1730     1.0  0.37863  0.33333  0.75968  1.0000
  H   H1731     1.0  0.62137  0.33333  0.75968  1.0000
  H   H1732     1.0  0.62137  0.33333  0.90699  1.0000
  H   H1733     1.0  0.42634  0.50000  0.87863  1.0000
  H   H1734     1.0  0.57366  0.50000  0.87863  1.0000
  H   H1735     1.0  0.57366  0.50000  0.78804  1.0000
  H   H1736     1.0  0.42634  0.50000  0.78804  1.0000
  H   H1737     1.0  0.37863  0.59301  0.83333  1.0000
  H   H1738     1.0  0.37863  0.40699  0.83333  1.0000
  H   H1739     1.0  0.62137  0.59301  0.83333  1.0000
  H   H1740     1.0  0.33333  0.54530  0.92634  1.0000
  H   H1741     1.0  0.33333  0.54530  0.74032  1.0000
  H   H1742     1.0  0.33333  0.45470  0.74032  1.0000
  H   H1743     1.0  0.33333  0.45470  0.92634  1.0000
  H   H1744     1.0  0.33333  0.59301  0.78804  1.0000
  H   H1745     1.0  0.33333  0.40699  0.78804  1.0000
  H   H1746     1.0  0.33333  0.40699  0.87863  1.0000
  H   H1747     1.0  0.33333  0.59301  0.87863  1.0000
  H   H1748     1.0  0.42634  0.54530  0.83333  1.0000
  H   H1749     1.0  0.57366  0.54530  0.83333  1.0000
  H   H1750     1.0  0.42634  0.45470  0.83333  1.0000
  H   H1751     1.0  0.37863  0.50000  0.74032  1.0000
  H   H1752     1.0  0.37863  0.50000  0.92634  1.0000
  H   H1753     1.0  0.62137  0.50000  0.92634  1.0000
  H   H1754     1.0  0.62137  0.50000  0.74032  1.0000
  H   H1755     1.0  0.59301  0.33333  0.87863  1.0000
  H   H1756     1.0  0.40699  0.33333  0.87863  1.0000
  H   H1757     1.0  0.40699  0.33333  0.78804  1.0000
  H   H1758     1.0  0.59301  0.33333  0.78804  1.0000
  H   H1759     1.0  0.54530  0.57366  0.83333  1.0000
  H   H1760     1.0  0.45470  0.57366  0.83333  1.0000
  H   H1761     1.0  0.45470  0.42634  0.83333  1.0000
  H   H1762     1.0  0.50000  0.37863  0.92634  1.0000
  H   H1763     1.0  0.50000  0.37863  0.74032  1.0000
  H   H1764     1.0  0.50000  0.62137  0.74032  1.0000
  H   H1765     1.0  0.50000  0.62137  0.92634  1.0000
  H   H1766     1.0  0.50000  0.42634  0.78804  1.0000
  H   H1767     1.0  0.50000  0.57366  0.78804  1.0000
  H   H1768     1.0  0.50000  0.57366  0.87863  1.0000
  H   H1769     1.0  0.50000  0.42634  0.87863  1.0000
  H   H1770     1.0  0.40699  0.37863  0.83333  1.0000
  H   H1771     1.0  0.40699  0.62137  0.83333  1.0000
  H   H1772     1.0  0.59301  0.62137  0.83333  1.0000
  H   H1773     1.0  0.54530  0.33333  0.74032  1.0000
  H   H1774     1.0  0.54530  0.33333  0.92634  1.0000
  H   H1775     1.0  0.45470  0.33333  0.92634  1.0000
  H   H1776     1.0  0.45470  0.33333  0.74032  1.0000
  H   H1777     1.0  0.59301  0.50000  0.71196  1.0000
  H   H1778     1.0  0.40699  0.50000  0.71196  1.0000
  H   H1779     1.0  0.40699  0.50000  0.95470  1.0000
  H   H1780     1.0  0.59301  0.50000  0.95470  1.0000
  H   H1781     1.0  0.54530  0.59301  0.66667  1.0000
  H   H1782     1.0  0.54530  0.40699  0.66667  1.0000
  H   H1783     1.0  0.45470  0.40699  0.66667  1.0000
  H   H1784     1.0  0.45470  0.59301  0.66667  1.0000
  H   H1785     1.0  0.50000  0.54530  0.75968  1.0000
  H   H1786     1.0  0.50000  0.54530  0.90699  1.0000
  H   H1787     1.0  0.50000  0.45470  0.90699  1.0000
  H   H1788     1.0  0.50000  0.45470  0.75968  1.0000
  H   H1789     1.0  0.50000  0.59301  0.95470  1.0000
  H   H1790     1.0  0.50000  0.40699  0.95470  1.0000
  H   H1791     1.0  0.50000  0.40699  0.71196  1.0000
  H   H1792     1.0  0.50000  0.59301  0.71196  1.0000
  H   H1793     1.0  0.59301  0.54530  0.66667  1.0000
  H   H1794     1.0  0.40699  0.54530  0.66667  1.0000
  H   H1795     1.0  0.40699  0.45470  0.66667  1.0000
  H   H1796     1.0  0.59301  0.45470  0.66667  1.0000
  H   H1797     1.0  0.54530  0.50000  0.90699  1.0000
  H   H1798     1.0  0.54530  0.50000  0.75968  1.0000
  H   H1799     1.0  0.45470  0.50000  0.75968  1.0000
  H   H1800     1.0  0.45470  0.50000  0.90699  1.0000
  Zr  Zr553     1.0  0.37330  0.66667  0.66667  1.0000
  Zr  Zr554     1.0  0.62671  0.66667  0.66667  1.0000
  Zr  Zr555     1.0  0.33333  0.70663  0.66667  1.0000
  Zr  Zr556     1.0  0.33333  0.96005  0.66667  1.0000
  Zr  Zr557     1.0  0.33333  0.66667  0.70663  1.0000
  Zr  Zr558     1.0  0.33333  0.66667  0.96005  1.0000
  Zr  Zr559     1.0  0.37330  0.83333  0.83333  1.0000
  Zr  Zr560     1.0  0.62671  0.83333  0.83333  1.0000
  Zr  Zr561     1.0  0.33333  0.87330  0.83333  1.0000
  Zr  Zr562     1.0  0.33333  0.79337  0.83333  1.0000
  Zr  Zr563     1.0  0.33333  0.83333  0.87330  1.0000
  Zr  Zr564     1.0  0.33333  0.83333  0.79337  1.0000
  Zr  Zr565     1.0  0.53997  0.66667  0.83333  1.0000
  Zr  Zr566     1.0  0.46003  0.66667  0.83333  1.0000
  Zr  Zr567     1.0  0.50000  0.70663  0.83333  1.0000
  Zr  Zr568     1.0  0.50000  0.96005  0.83333  1.0000
  Zr  Zr569     1.0  0.50000  0.66667  0.87330  1.0000
  Zr  Zr570     1.0  0.50000  0.66667  0.79337  1.0000
  Zr  Zr571     1.0  0.53997  0.83333  0.66667  1.0000
  Zr  Zr572     1.0  0.46003  0.83333  0.66667  1.0000
  Zr  Zr573     1.0  0.50000  0.87330  0.66667  1.0000
  Zr  Zr574     1.0  0.50000  0.79337  0.66667  1.0000
  Zr  Zr575     1.0  0.50000  0.83333  0.70663  1.0000
  Zr  Zr576     1.0  0.50000  0.83333  0.96005  1.0000
  O   O2945     1.0  0.39016  0.66667  0.69844  1.0000
  O   O2946     1.0  0.60986  0.66667  0.69844  1.0000
  O   O2947     1.0  0.60986  0.66667  0.96824  1.0000
  O   O2948     1.0  0.39016  0.66667  0.96824  1.0000
  O   O2949     1.0  0.36510  0.72349  0.66667  1.0000
  O   O2950     1.0  0.36510  0.94319  0.66667  1.0000
  O   O2951     1.0  0.63491  0.94319  0.66667  1.0000
  O   O2952     1.0  0.63491  0.72349  0.66667  1.0000
  O   O2953     1.0  0.33333  0.69844  0.72349  1.0000
  O   O2954     1.0  0.33333  0.69844  0.94319  1.0000
  O   O2955     1.0  0.33333  0.96824  0.94319  1.0000
  O   O2956     1.0  0.33333  0.96824  0.72349  1.0000
  O   O2957     1.0  0.33333  0.72349  0.96824  1.0000
  O   O2958     1.0  0.33333  0.94319  0.96824  1.0000
  O   O2959     1.0  0.33333  0.94319  0.69844  1.0000
  O   O2960     1.0  0.33333  0.72349  0.69844  1.0000
  O   O2961     1.0  0.39016  0.69844  0.66667  1.0000
  O   O2962     1.0  0.60986  0.69844  0.66667  1.0000
  O   O2963     1.0  0.60986  0.96824  0.66667  1.0000
  O   O2964     1.0  0.39016  0.96824  0.66667  1.0000
  O   O2965     1.0  0.36510  0.66667  0.94319  1.0000
  O   O2966     1.0  0.36510  0.66667  0.72349  1.0000
  O   O2967     1.0  0.63491  0.66667  0.72349  1.0000
  O   O2968     1.0  0.63491  0.66667  0.94319  1.0000
  O   O2969     1.0  0.39016  0.83333  0.86510  1.0000
  O   O2970     1.0  0.60986  0.83333  0.86510  1.0000
  O   O2971     1.0  0.60986  0.83333  0.80156  1.0000
  O   O2972     1.0  0.39016  0.83333  0.80156  1.0000
  O   O2973     1.0  0.36510  0.89016  0.83333  1.0000
  O   O2974     1.0  0.36510  0.77651  0.83333  1.0000
  O   O2975     1.0  0.63491  0.77651  0.83333  1.0000
  O   O2976     1.0  0.63491  0.89016  0.83333  1.0000
  O   O2977     1.0  0.33333  0.86510  0.89016  1.0000
  O   O2978     1.0  0.33333  0.86510  0.77651  1.0000
  O   O2979     1.0  0.33333  0.80156  0.77651  1.0000
  O   O2980     1.0  0.33333  0.80156  0.89016  1.0000
  O   O2981     1.0  0.33333  0.89016  0.80156  1.0000
  O   O2982     1.0  0.33333  0.77651  0.80156  1.0000
  O   O2983     1.0  0.33333  0.77651  0.86510  1.0000
  O   O2984     1.0  0.33333  0.89016  0.86510  1.0000
  O   O2985     1.0  0.39016  0.86510  0.83333  1.0000
  O   O2986     1.0  0.60986  0.86510  0.83333  1.0000
  O   O2987     1.0  0.60986  0.80156  0.83333  1.0000
  O   O2988     1.0  0.39016  0.80156  0.83333  1.0000
  O   O2989     1.0  0.36510  0.83333  0.77651  1.0000
  O   O2990     1.0  0.36510  0.83333  0.89016  1.0000
  O   O2991     1.0  0.63491  0.83333  0.89016  1.0000
  O   O2992     1.0  0.63491  0.83333  0.77651  1.0000
  O   O2993     1.0  0.55683  0.66667  0.86510  1.0000
  O   O2994     1.0  0.44317  0.66667  0.86510  1.0000
  O   O2995     1.0  0.44317  0.66667  0.80156  1.0000
  O   O2996     1.0  0.55683  0.66667  0.80156  1.0000
  O   O2997     1.0  0.53177  0.72349  0.83333  1.0000
  O   O2998     1.0  0.53177  0.94319  0.83333  1.0000
  O   O2999     1.0  0.46823  0.94319  0.83333  1.0000
  O   O3000     1.0  0.46823  0.72349  0.83333  1.0000
  O   O3001     1.0  0.50000  0.69844  0.89016  1.0000
  O   O3002     1.0  0.50000  0.69844  0.77651  1.0000
  O   O3003     1.0  0.50000  0.96824  0.77651  1.0000
  O   O3004     1.0  0.50000  0.96824  0.89016  1.0000
  O   O3005     1.0  0.50000  0.72349  0.80156  1.0000
  O   O3006     1.0  0.50000  0.94319  0.80156  1.0000
  O   O3007     1.0  0.50000  0.94319  0.86510  1.0000
  O   O3008     1.0  0.50000  0.72349  0.86510  1.0000
  O   O3009     1.0  0.55683  0.69844  0.83333  1.0000
  O   O3010     1.0  0.44317  0.69844  0.83333  1.0000
  O   O3011     1.0  0.44317  0.96824  0.83333  1.0000
  O   O3012     1.0  0.55683  0.96824  0.83333  1.0000
  O   O3013     1.0  0.53177  0.66667  0.77651  1.0000
  O   O3014     1.0  0.53177  0.66667  0.89016  1.0000
  O   O3015     1.0  0.46823  0.66667  0.89016  1.0000
  O   O3016     1.0  0.46823  0.66667  0.77651  1.0000
  O   O3017     1.0  0.55683  0.83333  0.69844  1.0000
  O   O3018     1.0  0.44317  0.83333  0.69844  1.0000
  O   O3019     1.0  0.44317  0.83333  0.96824  1.0000
  O   O3020     1.0  0.55683  0.83333  0.96824  1.0000
  O   O3021     1.0  0.53177  0.89016  0.66667  1.0000
  O   O3022     1.0  0.53177  0.77651  0.66667  1.0000
  O   O3023     1.0  0.46823  0.77651  0.66667  1.0000
  O   O3024     1.0  0.46823  0.89016  0.66667  1.0000
  O   O3025     1.0  0.50000  0.86510  0.72349  1.0000
  O   O3026     1.0  0.50000  0.86510  0.94319  1.0000
  O   O3027     1.0  0.50000  0.80156  0.94319  1.0000
  O   O3028     1.0  0.50000  0.80156  0.72349  1.0000
  O   O3029     1.0  0.50000  0.89016  0.96824  1.0000
  O   O3030     1.0  0.50000  0.77651  0.96824  1.0000
  O   O3031     1.0  0.50000  0.77651  0.69844  1.0000
  O   O3032     1.0  0.50000  0.89016  0.69844  1.0000
  O   O3033     1.0  0.55683  0.86510  0.66667  1.0000
  O   O3034     1.0  0.44317  0.86510  0.66667  1.0000
  O   O3035     1.0  0.44317  0.80156  0.66667  1.0000
  O   O3036     1.0  0.55683  0.80156  0.66667  1.0000
  O   O3037     1.0  0.53177  0.83333  0.94319  1.0000
  O   O3038     1.0  0.53177  0.83333  0.72349  1.0000
  O   O3039     1.0  0.46823  0.83333  0.72349  1.0000
  O   O3040     1.0  0.46823  0.83333  0.94319  1.0000
  O   O3041     1.0  0.35203  0.98130  0.98130  1.0000
  O   O3042     1.0  0.64797  0.68536  0.98130  1.0000
  O   O3043     1.0  0.64797  0.98130  0.68536  1.0000
  O   O3044     1.0  0.35203  0.68536  0.68536  1.0000
  O   O3045     1.0  0.64797  0.68536  0.68536  1.0000
  O   O3046     1.0  0.35203  0.98130  0.68536  1.0000
  O   O3047     1.0  0.64797  0.98130  0.98130  1.0000
  O   O3048     1.0  0.35203  0.68536  0.98130  1.0000
  O   O3049     1.0  0.35203  0.81464  0.81464  1.0000
  O   O3050     1.0  0.64797  0.85203  0.81464  1.0000
  O   O3051     1.0  0.64797  0.81464  0.85203  1.0000
  O   O3052     1.0  0.35203  0.85203  0.85203  1.0000
  O   O3053     1.0  0.64797  0.85203  0.85203  1.0000
  O   O3054     1.0  0.35203  0.81464  0.85203  1.0000
  O   O3055     1.0  0.64797  0.81464  0.81464  1.0000
  O   O3056     1.0  0.35203  0.85203  0.81464  1.0000
  O   O3057     1.0  0.51870  0.98130  0.81464  1.0000
  O   O3058     1.0  0.48130  0.68536  0.81464  1.0000
  O   O3059     1.0  0.48130  0.98130  0.85203  1.0000
  O   O3060     1.0  0.51870  0.68536  0.85203  1.0000
  O   O3061     1.0  0.48130  0.68536  0.85203  1.0000
  O   O3062     1.0  0.51870  0.98130  0.85203  1.0000
  O   O3063     1.0  0.48130  0.98130  0.81464  1.0000
  O   O3064     1.0  0.51870  0.68536  0.81464  1.0000
  O   O3065     1.0  0.51870  0.81464  0.98130  1.0000
  O   O3066     1.0  0.48130  0.85203  0.98130  1.0000
  O   O3067     1.0  0.48130  0.81464  0.68536  1.0000
  O   O3068     1.0  0.51870  0.85203  0.68536  1.0000
  O   O3069     1.0  0.48130  0.85203  0.68536  1.0000
  O   O3070     1.0  0.51870  0.81464  0.68536  1.0000
  O   O3071     1.0  0.48130  0.81464  0.98130  1.0000
  O   O3072     1.0  0.51870  0.85203  0.98130  1.0000
  C   C3805     1.0  0.38454  0.66667  0.94881  1.0000
  C   C3806     1.0  0.61548  0.66667  0.94881  1.0000
  C   C3807     1.0  0.61548  0.66667  0.71787  1.0000
  C   C3808     1.0  0.38454  0.66667  0.71787  1.0000
  C   C3809     1.0  0.61548  0.71787  0.66667  1.0000
  C   C3810     1.0  0.61548  0.94881  0.66667  1.0000
  C   C3811     1.0  0.38454  0.94881  0.66667  1.0000
  C   C3812     1.0  0.38454  0.71787  0.66667  1.0000
  C   C3813     1.0  0.33333  0.94881  0.71787  1.0000
  C   C3814     1.0  0.33333  0.94881  0.94881  1.0000
  C   C3815     1.0  0.33333  0.71787  0.94881  1.0000
  C   C3816     1.0  0.33333  0.71787  0.71787  1.0000
  C   C3817     1.0  0.38454  0.83333  0.78214  1.0000
  C   C3818     1.0  0.61548  0.83333  0.78214  1.0000
  C   C3819     1.0  0.61548  0.83333  0.88454  1.0000
  C   C3820     1.0  0.38454  0.83333  0.88454  1.0000
  C   C3821     1.0  0.61548  0.88454  0.83333  1.0000
  C   C3822     1.0  0.61548  0.78214  0.83333  1.0000
  C   C3823     1.0  0.38454  0.78214  0.83333  1.0000
  C   C3824     1.0  0.38454  0.88454  0.83333  1.0000
  C   C3825     1.0  0.33333  0.78214  0.88454  1.0000
  C   C3826     1.0  0.33333  0.78214  0.78214  1.0000
  C   C3827     1.0  0.33333  0.88454  0.78214  1.0000
  C   C3828     1.0  0.33333  0.88454  0.88454  1.0000
  C   C3829     1.0  0.55121  0.66667  0.78214  1.0000
  C   C3830     1.0  0.44881  0.66667  0.78214  1.0000
  C   C3831     1.0  0.44881  0.66667  0.88454  1.0000
  C   C3832     1.0  0.55121  0.66667  0.88454  1.0000
  C   C3833     1.0  0.44881  0.71787  0.83333  1.0000
  C   C3834     1.0  0.44881  0.94881  0.83333  1.0000
  C   C3835     1.0  0.55121  0.94881  0.83333  1.0000
  C   C3836     1.0  0.55121  0.71787  0.83333  1.0000
  C   C3837     1.0  0.50000  0.94881  0.88454  1.0000
  C   C3838     1.0  0.50000  0.94881  0.78214  1.0000
  C   C3839     1.0  0.50000  0.71787  0.78214  1.0000
  C   C3840     1.0  0.50000  0.71787  0.88454  1.0000
  C   C3841     1.0  0.55121  0.83333  0.94881  1.0000
  C   C3842     1.0  0.44881  0.83333  0.94881  1.0000
  C   C3843     1.0  0.44881  0.83333  0.71787  1.0000
  C   C3844     1.0  0.55121  0.83333  0.71787  1.0000
  C   C3845     1.0  0.44881  0.88454  0.66667  1.0000
  C   C3846     1.0  0.44881  0.78214  0.66667  1.0000
  C   C3847     1.0  0.55121  0.78214  0.66667  1.0000
  C   C3848     1.0  0.55121  0.88454  0.66667  1.0000
  C   C3849     1.0  0.50000  0.78214  0.71787  1.0000
  C   C3850     1.0  0.50000  0.78214  0.94881  1.0000
  C   C3851     1.0  0.50000  0.88454  0.94881  1.0000
  C   C3852     1.0  0.50000  0.88454  0.71787  1.0000
  C   C3853     1.0  0.40167  0.66667  0.73501  1.0000
  C   C3854     1.0  0.59834  0.66667  0.93167  1.0000
  C   C3855     1.0  0.40167  0.66667  0.93167  1.0000
  C   C3856     1.0  0.40167  0.73501  0.66667  1.0000
  C   C3857     1.0  0.40167  0.93167  0.66667  1.0000
  C   C3858     1.0  0.59834  0.73501  0.66667  1.0000
  C   C3859     1.0  0.33333  0.73501  0.73501  1.0000
  C   C3860     1.0  0.33333  0.73501  0.93167  1.0000
  C   C3861     1.0  0.33333  0.93167  0.73501  1.0000
  C   C3862     1.0  0.40167  0.83333  0.90167  1.0000
  C   C3863     1.0  0.59834  0.83333  0.90167  1.0000
  C   C3864     1.0  0.59834  0.83333  0.76501  1.0000
  C   C3865     1.0  0.40167  0.76501  0.83333  1.0000
  C   C3866     1.0  0.59834  0.76501  0.83333  1.0000
  C   C3867     1.0  0.33333  0.90167  0.76501  1.0000
  C   C3868     1.0  0.33333  0.76501  0.76501  1.0000
  C   C3869     1.0  0.33333  0.76501  0.90167  1.0000
  C   C3870     1.0  0.56834  0.66667  0.90167  1.0000
  C   C3871     1.0  0.43167  0.66667  0.90167  1.0000
  C   C3872     1.0  0.43167  0.66667  0.76501  1.0000
  C   C3873     1.0  0.56834  0.73501  0.83333  1.0000
  C   C3874     1.0  0.43167  0.73501  0.83333  1.0000
  C   C3875     1.0  0.50000  0.73501  0.90167  1.0000
  C   C3876     1.0  0.50000  0.93167  0.76501  1.0000
  C   C3877     1.0  0.56834  0.83333  0.73501  1.0000
  C   C3878     1.0  0.43167  0.83333  0.93167  1.0000
  C   C3879     1.0  0.56834  0.83333  0.93167  1.0000
  C   C3880     1.0  0.56834  0.76501  0.66667  1.0000
  C   C3881     1.0  0.43167  0.76501  0.66667  1.0000
  C   C3882     1.0  0.43167  0.90167  0.66667  1.0000
  C   C3883     1.0  0.50000  0.90167  0.73501  1.0000
  C   C3884     1.0  0.50000  0.76501  0.93167  1.0000
  C   C3885     1.0  0.42250  0.66667  0.72813  1.0000
  C   C3886     1.0  0.57750  0.66667  0.93853  1.0000
  C   C3887     1.0  0.42250  0.66667  0.93853  1.0000
  C   C3888     1.0  0.39480  0.75583  0.66667  1.0000
  C   C3889     1.0  0.39480  0.91084  0.66667  1.0000
  C   C3890     1.0  0.60520  0.75583  0.66667  1.0000
  C   C3891     1.0  0.33333  0.72813  0.75583  1.0000
  C   C3892     1.0  0.33333  0.72813  0.91084  1.0000
  C   C3893     1.0  0.33333  0.93853  0.75583  1.0000
  C   C3894     1.0  0.33333  0.75583  0.93853  1.0000
  C   C3895     1.0  0.33333  0.91084  0.72813  1.0000
  C   C3896     1.0  0.33333  0.75583  0.72813  1.0000
  C   C3897     1.0  0.42250  0.72813  0.66667  1.0000
  C   C3898     1.0  0.57750  0.72813  0.66667  1.0000
  C   C3899     1.0  0.42250  0.93853  0.66667  1.0000
  C   C3900     1.0  0.39480  0.66667  0.91084  1.0000
  C   C3901     1.0  0.39480  0.66667  0.75583  1.0000
  C   C3902     1.0  0.60520  0.66667  0.91084  1.0000
  C   C3903     1.0  0.42250  0.83333  0.89480  1.0000
  C   C3904     1.0  0.57750  0.83333  0.89480  1.0000
  C   C3905     1.0  0.57750  0.83333  0.77187  1.0000
  C   C3906     1.0  0.39480  0.74417  0.83333  1.0000
  C   C3907     1.0  0.60520  0.74417  0.83333  1.0000
  C   C3908     1.0  0.33333  0.89480  0.74417  1.0000
  C   C3909     1.0  0.33333  0.77187  0.74417  1.0000
  C   C3910     1.0  0.33333  0.77187  0.92251  1.0000
  C   C3911     1.0  0.33333  0.92251  0.77187  1.0000
  C   C3912     1.0  0.33333  0.74417  0.77187  1.0000
  C   C3913     1.0  0.33333  0.74417  0.89480  1.0000
  C   C3914     1.0  0.57750  0.77187  0.83333  1.0000
  C   C3915     1.0  0.42250  0.77187  0.83333  1.0000
  C   C3916     1.0  0.39480  0.83333  0.92251  1.0000
  C   C3917     1.0  0.60520  0.83333  0.92251  1.0000
  C   C3918     1.0  0.60520  0.83333  0.74417  1.0000
  C   C3919     1.0  0.58918  0.66667  0.89480  1.0000
  C   C3920     1.0  0.41084  0.66667  0.89480  1.0000
  C   C3921     1.0  0.41084  0.66667  0.77187  1.0000
  C   C3922     1.0  0.56147  0.75583  0.83333  1.0000
  C   C3923     1.0  0.43853  0.75583  0.83333  1.0000
  C   C3924     1.0  0.50000  0.72813  0.92251  1.0000
  C   C3925     1.0  0.50000  0.93853  0.74417  1.0000
  C   C3926     1.0  0.50000  0.91084  0.77187  1.0000
  C   C3927     1.0  0.50000  0.75583  0.89480  1.0000
  C   C3928     1.0  0.58918  0.72813  0.83333  1.0000
  C   C3929     1.0  0.41084  0.72813  0.83333  1.0000
  C   C3930     1.0  0.56147  0.66667  0.92251  1.0000
  C   C3931     1.0  0.43853  0.66667  0.92251  1.0000
  C   C3932     1.0  0.43853  0.66667  0.74417  1.0000
  C   C3933     1.0  0.58918  0.83333  0.72813  1.0000
  C   C3934     1.0  0.41084  0.83333  0.93853  1.0000
  C   C3935     1.0  0.58918  0.83333  0.93853  1.0000
  C   C3936     1.0  0.56147  0.74417  0.66667  1.0000
  C   C3937     1.0  0.43853  0.74417  0.66667  1.0000
  C   C3938     1.0  0.43853  0.92251  0.66667  1.0000
  C   C3939     1.0  0.50000  0.89480  0.75583  1.0000
  C   C3940     1.0  0.50000  0.77187  0.91084  1.0000
  C   C3941     1.0  0.50000  0.74417  0.93853  1.0000
  C   C3942     1.0  0.50000  0.92251  0.72813  1.0000
  C   C3943     1.0  0.41084  0.89480  0.66667  1.0000
  C   C3944     1.0  0.41084  0.77187  0.66667  1.0000
  C   C3945     1.0  0.58918  0.77187  0.66667  1.0000
  C   C3946     1.0  0.56147  0.83333  0.91084  1.0000
  C   C3947     1.0  0.56147  0.83333  0.75583  1.0000
  C   C3948     1.0  0.43853  0.83333  0.91084  1.0000
  H   H1801     1.0  0.42634  0.66667  0.71196  1.0000
  H   H1802     1.0  0.57366  0.66667  0.95470  1.0000
  H   H1803     1.0  0.42634  0.66667  0.95470  1.0000
  H   H1804     1.0  0.37863  0.75968  0.66667  1.0000
  H   H1805     1.0  0.37863  0.90699  0.66667  1.0000
  H   H1806     1.0  0.62137  0.75968  0.66667  1.0000
  H   H1807     1.0  0.33333  0.71196  0.75968  1.0000
  H   H1808     1.0  0.33333  0.71196  0.90699  1.0000
  H   H1809     1.0  0.33333  0.95470  0.75968  1.0000
  H   H1810     1.0  0.33333  0.75968  0.95470  1.0000
  H   H1811     1.0  0.33333  0.90699  0.71196  1.0000
  H   H1812     1.0  0.33333  0.75968  0.71196  1.0000
  H   H1813     1.0  0.42634  0.71196  0.66667  1.0000
  H   H1814     1.0  0.57366  0.71196  0.66667  1.0000
  H   H1815     1.0  0.42634  0.95470  0.66667  1.0000
  H   H1816     1.0  0.37863  0.66667  0.90699  1.0000
  H   H1817     1.0  0.37863  0.66667  0.75968  1.0000
  H   H1818     1.0  0.62137  0.66667  0.90699  1.0000
  H   H1819     1.0  0.42634  0.83333  0.87863  1.0000
  H   H1820     1.0  0.57366  0.83333  0.87863  1.0000
  H   H1821     1.0  0.57366  0.83333  0.78804  1.0000
  H   H1822     1.0  0.37863  0.74032  0.83333  1.0000
  H   H1823     1.0  0.62137  0.74032  0.83333  1.0000
  H   H1824     1.0  0.33333  0.87863  0.74032  1.0000
  H   H1825     1.0  0.33333  0.78804  0.74032  1.0000
  H   H1826     1.0  0.33333  0.78804  0.92634  1.0000
  H   H1827     1.0  0.33333  0.92634  0.78804  1.0000
  H   H1828     1.0  0.33333  0.74032  0.78804  1.0000
  H   H1829     1.0  0.33333  0.74032  0.87863  1.0000
  H   H1830     1.0  0.57366  0.78804  0.83333  1.0000
  H   H1831     1.0  0.42634  0.78804  0.83333  1.0000
  H   H1832     1.0  0.37863  0.83333  0.92634  1.0000
  H   H1833     1.0  0.62137  0.83333  0.92634  1.0000
  H   H1834     1.0  0.62137  0.83333  0.74032  1.0000
  H   H1835     1.0  0.59301  0.66667  0.87863  1.0000
  H   H1836     1.0  0.40699  0.66667  0.87863  1.0000
  H   H1837     1.0  0.40699  0.66667  0.78804  1.0000
  H   H1838     1.0  0.54530  0.75968  0.83333  1.0000
  H   H1839     1.0  0.45470  0.75968  0.83333  1.0000
  H   H1840     1.0  0.50000  0.71196  0.92634  1.0000
  H   H1841     1.0  0.50000  0.95470  0.74032  1.0000
  H   H1842     1.0  0.50000  0.90699  0.78804  1.0000
  H   H1843     1.0  0.50000  0.75968  0.87863  1.0000
  H   H1844     1.0  0.59301  0.71196  0.83333  1.0000
  H   H1845     1.0  0.40699  0.71196  0.83333  1.0000
  H   H1846     1.0  0.54530  0.66667  0.92634  1.0000
  H   H1847     1.0  0.45470  0.66667  0.92634  1.0000
  H   H1848     1.0  0.45470  0.66667  0.74032  1.0000
  H   H1849     1.0  0.59301  0.83333  0.71196  1.0000
  H   H1850     1.0  0.40699  0.83333  0.95470  1.0000
  H   H1851     1.0  0.59301  0.83333  0.95470  1.0000
  H   H1852     1.0  0.54530  0.74032  0.66667  1.0000
  H   H1853     1.0  0.45470  0.74032  0.66667  1.0000
  H   H1854     1.0  0.45470  0.92634  0.66667  1.0000
  H   H1855     1.0  0.50000  0.87863  0.75968  1.0000
  H   H1856     1.0  0.50000  0.78804  0.90699  1.0000
  H   H1857     1.0  0.50000  0.74032  0.95470  1.0000
  H   H1858     1.0  0.50000  0.92634  0.71196  1.0000
  H   H1859     1.0  0.40699  0.87863  0.66667  1.0000
  H   H1860     1.0  0.40699  0.78804  0.66667  1.0000
  H   H1861     1.0  0.59301  0.78804  0.66667  1.0000
  H   H1862     1.0  0.54530  0.83333  0.90699  1.0000
  H   H1863     1.0  0.54530  0.83333  0.75968  1.0000
  H   H1864     1.0  0.45470  0.83333  0.90699  1.0000
  Zr  Zr577     1.0  0.70663  0.00000  0.66667  1.0000
  Zr  Zr578     1.0  0.96005  0.00000  0.66667  1.0000
  Zr  Zr579     1.0  0.66667  0.03997  0.66667  1.0000
  Zr  Zr580     1.0  0.66667  0.29338  0.66667  1.0000
  Zr  Zr581     1.0  0.66667  0.00000  0.70663  1.0000
  Zr  Zr582     1.0  0.66667  0.00000  0.96005  1.0000
  Zr  Zr583     1.0  0.70663  0.16667  0.83333  1.0000
  Zr  Zr584     1.0  0.96005  0.16667  0.83333  1.0000
  Zr  Zr585     1.0  0.66667  0.20663  0.83333  1.0000
  Zr  Zr586     1.0  0.66667  0.12670  0.83333  1.0000
  Zr  Zr587     1.0  0.66667  0.16667  0.87330  1.0000
  Zr  Zr588     1.0  0.66667  0.16667  0.79337  1.0000
  Zr  Zr589     1.0  0.87330  0.00000  0.83333  1.0000
  Zr  Zr590     1.0  0.79337  0.00000  0.83333  1.0000
  Zr  Zr591     1.0  0.83333  0.03997  0.83333  1.0000
  Zr  Zr592     1.0  0.83333  0.29338  0.83333  1.0000
  Zr  Zr593     1.0  0.83333  0.00000  0.87330  1.0000
  Zr  Zr594     1.0  0.83333  0.00000  0.79337  1.0000
  Zr  Zr595     1.0  0.87330  0.16667  0.66667  1.0000
  Zr  Zr596     1.0  0.79337  0.16667  0.66667  1.0000
  Zr  Zr597     1.0  0.83333  0.20663  0.66667  1.0000
  Zr  Zr598     1.0  0.83333  0.12670  0.66667  1.0000
  Zr  Zr599     1.0  0.83333  0.16667  0.70663  1.0000
  Zr  Zr600     1.0  0.83333  0.16667  0.96005  1.0000
  O   O3073     1.0  0.72349  0.00000  0.69844  1.0000
  O   O3074     1.0  0.94319  0.00000  0.69844  1.0000
  O   O3075     1.0  0.94319  0.00000  0.96824  1.0000
  O   O3076     1.0  0.72349  0.00000  0.96824  1.0000
  O   O3077     1.0  0.69844  0.05683  0.66667  1.0000
  O   O3078     1.0  0.69844  0.27652  0.66667  1.0000
  O   O3079     1.0  0.96824  0.27652  0.66667  1.0000
  O   O3080     1.0  0.96824  0.05683  0.66667  1.0000
  O   O3081     1.0  0.66667  0.03177  0.72349  1.0000
  O   O3082     1.0  0.66667  0.03177  0.94319  1.0000
  O   O3083     1.0  0.66667  0.30158  0.94319  1.0000
  O   O3084     1.0  0.66667  0.30158  0.72349  1.0000
  O   O3085     1.0  0.66667  0.05683  0.96824  1.0000
  O   O3086     1.0  0.66667  0.27652  0.96824  1.0000
  O   O3087     1.0  0.66667  0.27652  0.69844  1.0000
  O   O3088     1.0  0.66667  0.05683  0.69844  1.0000
  O   O3089     1.0  0.72349  0.03177  0.66667  1.0000
  O   O3090     1.0  0.94319  0.03177  0.66667  1.0000
  O   O3091     1.0  0.94319  0.30158  0.66667  1.0000
  O   O3092     1.0  0.72349  0.30158  0.66667  1.0000
  O   O3093     1.0  0.69844  0.00000  0.94319  1.0000
  O   O3094     1.0  0.69844  0.00000  0.72349  1.0000
  O   O3095     1.0  0.96824  0.00000  0.72349  1.0000
  O   O3096     1.0  0.96824  0.00000  0.94319  1.0000
  O   O3097     1.0  0.72349  0.16667  0.86510  1.0000
  O   O3098     1.0  0.94319  0.16667  0.86510  1.0000
  O   O3099     1.0  0.94319  0.16667  0.80156  1.0000
  O   O3100     1.0  0.72349  0.16667  0.80156  1.0000
  O   O3101     1.0  0.69844  0.22349  0.83333  1.0000
  O   O3102     1.0  0.69844  0.10984  0.83333  1.0000
  O   O3103     1.0  0.96824  0.10984  0.83333  1.0000
  O   O3104     1.0  0.96824  0.22349  0.83333  1.0000
  O   O3105     1.0  0.66667  0.19844  0.89016  1.0000
  O   O3106     1.0  0.66667  0.19844  0.77651  1.0000
  O   O3107     1.0  0.66667  0.13490  0.77651  1.0000
  O   O3108     1.0  0.66667  0.13490  0.89016  1.0000
  O   O3109     1.0  0.66667  0.22349  0.80156  1.0000
  O   O3110     1.0  0.66667  0.10984  0.80156  1.0000
  O   O3111     1.0  0.66667  0.10984  0.86510  1.0000
  O   O3112     1.0  0.66667  0.22349  0.86510  1.0000
  O   O3113     1.0  0.72349  0.19844  0.83333  1.0000
  O   O3114     1.0  0.94319  0.19844  0.83333  1.0000
  O   O3115     1.0  0.94319  0.13490  0.83333  1.0000
  O   O3116     1.0  0.72349  0.13490  0.83333  1.0000
  O   O3117     1.0  0.69844  0.16667  0.77651  1.0000
  O   O3118     1.0  0.69844  0.16667  0.89016  1.0000
  O   O3119     1.0  0.96824  0.16667  0.89016  1.0000
  O   O3120     1.0  0.96824  0.16667  0.77651  1.0000
  O   O3121     1.0  0.89016  0.00000  0.86510  1.0000
  O   O3122     1.0  0.77651  0.00000  0.86510  1.0000
  O   O3123     1.0  0.77651  0.00000  0.80156  1.0000
  O   O3124     1.0  0.89016  0.00000  0.80156  1.0000
  O   O3125     1.0  0.86510  0.05683  0.83333  1.0000
  O   O3126     1.0  0.86510  0.27652  0.83333  1.0000
  O   O3127     1.0  0.80156  0.27652  0.83333  1.0000
  O   O3128     1.0  0.80156  0.05683  0.83333  1.0000
  O   O3129     1.0  0.83333  0.03177  0.89016  1.0000
  O   O3130     1.0  0.83333  0.03177  0.77651  1.0000
  O   O3131     1.0  0.83333  0.30158  0.77651  1.0000
  O   O3132     1.0  0.83333  0.30158  0.89016  1.0000
  O   O3133     1.0  0.83333  0.05683  0.80156  1.0000
  O   O3134     1.0  0.83333  0.27652  0.80156  1.0000
  O   O3135     1.0  0.83333  0.27652  0.86510  1.0000
  O   O3136     1.0  0.83333  0.05683  0.86510  1.0000
  O   O3137     1.0  0.89016  0.03177  0.83333  1.0000
  O   O3138     1.0  0.77651  0.03177  0.83333  1.0000
  O   O3139     1.0  0.77651  0.30158  0.83333  1.0000
  O   O3140     1.0  0.89016  0.30158  0.83333  1.0000
  O   O3141     1.0  0.86510  0.00000  0.77651  1.0000
  O   O3142     1.0  0.86510  0.00000  0.89016  1.0000
  O   O3143     1.0  0.80156  0.00000  0.89016  1.0000
  O   O3144     1.0  0.80156  0.00000  0.77651  1.0000
  O   O3145     1.0  0.89016  0.16667  0.69844  1.0000
  O   O3146     1.0  0.77651  0.16667  0.69844  1.0000
  O   O3147     1.0  0.77651  0.16667  0.96824  1.0000
  O   O3148     1.0  0.89016  0.16667  0.96824  1.0000
  O   O3149     1.0  0.86510  0.22349  0.66667  1.0000
  O   O3150     1.0  0.86510  0.10984  0.66667  1.0000
  O   O3151     1.0  0.80156  0.10984  0.66667  1.0000
  O   O3152     1.0  0.80156  0.22349  0.66667  1.0000
  O   O3153     1.0  0.83333  0.19844  0.72349  1.0000
  O   O3154     1.0  0.83333  0.19844  0.94319  1.0000
  O   O3155     1.0  0.83333  0.13490  0.94319  1.0000
  O   O3156     1.0  0.83333  0.13490  0.72349  1.0000
  O   O3157     1.0  0.83333  0.22349  0.96824  1.0000
  O   O3158     1.0  0.83333  0.10984  0.96824  1.0000
  O   O3159     1.0  0.83333  0.10984  0.69844  1.0000
  O   O3160     1.0  0.83333  0.22349  0.69844  1.0000
  O   O3161     1.0  0.89016  0.19844  0.66667  1.0000
  O   O3162     1.0  0.77651  0.19844  0.66667  1.0000
  O   O3163     1.0  0.77651  0.13490  0.66667  1.0000
  O   O3164     1.0  0.89016  0.13490  0.66667  1.0000
  O   O3165     1.0  0.86510  0.16667  0.94319  1.0000
  O   O3166     1.0  0.86510  0.16667  0.72349  1.0000
  O   O3167     1.0  0.80156  0.16667  0.72349  1.0000
  O   O3168     1.0  0.80156  0.16667  0.94319  1.0000
  O   O3169     1.0  0.68536  0.31464  0.98130  1.0000
  O   O3170     1.0  0.98130  0.01870  0.98130  1.0000
  O   O3171     1.0  0.98130  0.31464  0.68536  1.0000
  O   O3172     1.0  0.68536  0.01870  0.68536  1.0000
  O   O3173     1.0  0.98130  0.01870  0.68536  1.0000
  O   O3174     1.0  0.68536  0.31464  0.68536  1.0000
  O   O3175     1.0  0.98130  0.31464  0.98130  1.0000
  O   O3176     1.0  0.68536  0.01870  0.98130  1.0000
  O   O3177     1.0  0.68536  0.14797  0.81464  1.0000
  O   O3178     1.0  0.98130  0.18536  0.81464  1.0000
  O   O3179     1.0  0.98130  0.14797  0.85203  1.0000
  O   O3180     1.0  0.68536  0.18536  0.85203  1.0000
  O   O3181     1.0  0.98130  0.18536  0.85203  1.0000
  O   O3182     1.0  0.68536  0.14797  0.85203  1.0000
  O   O3183     1.0  0.98130  0.14797  0.81464  1.0000
  O   O3184     1.0  0.68536  0.18536  0.81464  1.0000
  O   O3185     1.0  0.85203  0.31464  0.81464  1.0000
  O   O3186     1.0  0.81464  0.01870  0.81464  1.0000
  O   O3187     1.0  0.81464  0.31464  0.85203  1.0000
  O   O3188     1.0  0.85203  0.01870  0.85203  1.0000
  O   O3189     1.0  0.81464  0.01870  0.85203  1.0000
  O   O3190     1.0  0.85203  0.31464  0.85203  1.0000
  O   O3191     1.0  0.81464  0.31464  0.81464  1.0000
  O   O3192     1.0  0.85203  0.01870  0.81464  1.0000
  O   O3193     1.0  0.85203  0.14797  0.98130  1.0000
  O   O3194     1.0  0.81464  0.18536  0.98130  1.0000
  O   O3195     1.0  0.81464  0.14797  0.68536  1.0000
  O   O3196     1.0  0.85203  0.18536  0.68536  1.0000
  O   O3197     1.0  0.81464  0.18536  0.68536  1.0000
  O   O3198     1.0  0.85203  0.14797  0.68536  1.0000
  O   O3199     1.0  0.81464  0.14797  0.98130  1.0000
  O   O3200     1.0  0.85203  0.18536  0.98130  1.0000
  C   C3949     1.0  0.71787  0.00000  0.94881  1.0000
  C   C3950     1.0  0.94881  0.00000  0.94881  1.0000
  C   C3951     1.0  0.94881  0.00000  0.71787  1.0000
  C   C3952     1.0  0.71787  0.00000  0.71787  1.0000
  C   C3953     1.0  0.94881  0.05121  0.66667  1.0000
  C   C3954     1.0  0.94881  0.28214  0.66667  1.0000
  C   C3955     1.0  0.71787  0.28214  0.66667  1.0000
  C   C3956     1.0  0.71787  0.05121  0.66667  1.0000
  C   C3957     1.0  0.66667  0.28214  0.71787  1.0000
  C   C3958     1.0  0.66667  0.28214  0.94881  1.0000
  C   C3959     1.0  0.66667  0.05121  0.94881  1.0000
  C   C3960     1.0  0.66667  0.05121  0.71787  1.0000
  C   C3961     1.0  0.71787  0.16667  0.78214  1.0000
  C   C3962     1.0  0.94881  0.16667  0.78214  1.0000
  C   C3963     1.0  0.94881  0.16667  0.88454  1.0000
  C   C3964     1.0  0.71787  0.16667  0.88454  1.0000
  C   C3965     1.0  0.94881  0.21787  0.83333  1.0000
  C   C3966     1.0  0.94881  0.11548  0.83333  1.0000
  C   C3967     1.0  0.71787  0.11548  0.83333  1.0000
  C   C3968     1.0  0.71787  0.21787  0.83333  1.0000
  C   C3969     1.0  0.66667  0.11548  0.88454  1.0000
  C   C3970     1.0  0.66667  0.11548  0.78214  1.0000
  C   C3971     1.0  0.66667  0.21787  0.78214  1.0000
  C   C3972     1.0  0.66667  0.21787  0.88454  1.0000
  C   C3973     1.0  0.88454  0.00000  0.78214  1.0000
  C   C3974     1.0  0.78214  0.00000  0.78214  1.0000
  C   C3975     1.0  0.78214  0.00000  0.88454  1.0000
  C   C3976     1.0  0.88454  0.00000  0.88454  1.0000
  C   C3977     1.0  0.78214  0.05121  0.83333  1.0000
  C   C3978     1.0  0.78214  0.28214  0.83333  1.0000
  C   C3979     1.0  0.88454  0.28214  0.83333  1.0000
  C   C3980     1.0  0.88454  0.05121  0.83333  1.0000
  C   C3981     1.0  0.83333  0.28214  0.88454  1.0000
  C   C3982     1.0  0.83333  0.28214  0.78214  1.0000
  C   C3983     1.0  0.83333  0.05121  0.78214  1.0000
  C   C3984     1.0  0.83333  0.05121  0.88454  1.0000
  C   C3985     1.0  0.88454  0.16667  0.94881  1.0000
  C   C3986     1.0  0.78214  0.16667  0.94881  1.0000
  C   C3987     1.0  0.78214  0.16667  0.71787  1.0000
  C   C3988     1.0  0.88454  0.16667  0.71787  1.0000
  C   C3989     1.0  0.78214  0.21787  0.66667  1.0000
  C   C3990     1.0  0.78214  0.11548  0.66667  1.0000
  C   C3991     1.0  0.88454  0.11548  0.66667  1.0000
  C   C3992     1.0  0.88454  0.21787  0.66667  1.0000
  C   C3993     1.0  0.83333  0.11548  0.71787  1.0000
  C   C3994     1.0  0.83333  0.11548  0.94881  1.0000
  C   C3995     1.0  0.83333  0.21787  0.94881  1.0000
  C   C3996     1.0  0.83333  0.21787  0.71787  1.0000
  C   C3997     1.0  0.73501  0.00000  0.73501  1.0000
  C   C3998     1.0  0.93167  0.00000  0.73501  1.0000
  C   C3999     1.0  0.93167  0.00000  0.93167  1.0000
  C   C4000     1.0  0.73501  0.06834  0.66667  1.0000
  C   C4001     1.0  0.93167  0.26501  0.66667  1.0000
  C   C4002     1.0  0.66667  0.06834  0.73501  1.0000
  C   C4003     1.0  0.66667  0.26501  0.93167  1.0000
  C   C4004     1.0  0.73501  0.16667  0.90167  1.0000
  C   C4005     1.0  0.93167  0.16667  0.90167  1.0000
  C   C4006     1.0  0.93167  0.16667  0.76501  1.0000
  C   C4007     1.0  0.73501  0.16667  0.76501  1.0000
  C   C4008     1.0  0.73501  0.23501  0.83333  1.0000
  C   C4009     1.0  0.93167  0.09834  0.83333  1.0000
  C   C4010     1.0  0.93167  0.23501  0.83333  1.0000
  C   C4011     1.0  0.66667  0.23501  0.90167  1.0000
  C   C4012     1.0  0.66667  0.09834  0.76501  1.0000
  C   C4013     1.0  0.90167  0.00000  0.90167  1.0000
  C   C4014     1.0  0.76501  0.00000  0.76501  1.0000
  C   C4015     1.0  0.90167  0.00000  0.76501  1.0000
  C   C4016     1.0  0.90167  0.06834  0.83333  1.0000
  C   C4017     1.0  0.90167  0.26501  0.83333  1.0000
  C   C4018     1.0  0.76501  0.26501  0.83333  1.0000
  C   C4019     1.0  0.83333  0.06834  0.90167  1.0000
  C   C4020     1.0  0.83333  0.06834  0.76501  1.0000
  C   C4021     1.0  0.83333  0.26501  0.90167  1.0000
  C   C4022     1.0  0.90167  0.16667  0.73501  1.0000
  C   C4023     1.0  0.76501  0.16667  0.73501  1.0000
  C   C4024     1.0  0.76501  0.16667  0.93167  1.0000
  C   C4025     1.0  0.90167  0.16667  0.93167  1.0000
  C   C4026     1.0  0.90167  0.23501  0.66667  1.0000
  C   C4027     1.0  0.76501  0.09834  0.66667  1.0000
  C   C4028     1.0  0.83333  0.23501  0.93167  1.0000
  C   C4029     1.0  0.83333  0.09834  0.93167  1.0000
  C   C4030     1.0  0.83333  0.09834  0.73501  1.0000
  C   C4031     1.0  0.75583  0.00000  0.72813  1.0000
  C   C4032     1.0  0.91084  0.00000  0.72813  1.0000
  C   C4033     1.0  0.91084  0.00000  0.93853  1.0000
  C   C4034     1.0  0.72813  0.08916  0.66667  1.0000
  C   C4035     1.0  0.93853  0.24417  0.66667  1.0000
  C   C4036     1.0  0.66667  0.06147  0.75583  1.0000
  C   C4037     1.0  0.66667  0.27187  0.91084  1.0000
  C   C4038     1.0  0.66667  0.24417  0.93853  1.0000
  C   C4039     1.0  0.66667  0.08916  0.72813  1.0000
  C   C4040     1.0  0.75583  0.06147  0.66667  1.0000
  C   C4041     1.0  0.91084  0.27187  0.66667  1.0000
  C   C4042     1.0  0.72813  0.00000  0.75583  1.0000
  C   C4043     1.0  0.93853  0.00000  0.75583  1.0000
  C   C4044     1.0  0.93853  0.00000  0.91084  1.0000
  C   C4045     1.0  0.75583  0.16667  0.89480  1.0000
  C   C4046     1.0  0.91084  0.16667  0.89480  1.0000
  C   C4047     1.0  0.91084  0.16667  0.77187  1.0000
  C   C4048     1.0  0.75583  0.16667  0.77187  1.0000
  C   C4049     1.0  0.72813  0.25585  0.83333  1.0000
  C   C4050     1.0  0.93853  0.07750  0.83333  1.0000
  C   C4051     1.0  0.93853  0.25585  0.83333  1.0000
  C   C4052     1.0  0.66667  0.22813  0.92251  1.0000
  C   C4053     1.0  0.66667  0.10520  0.74417  1.0000
  C   C4054     1.0  0.66667  0.07750  0.77187  1.0000
  C   C4055     1.0  0.66667  0.25585  0.89480  1.0000
  C   C4056     1.0  0.75583  0.22813  0.83333  1.0000
  C   C4057     1.0  0.91084  0.22813  0.83333  1.0000
  C   C4058     1.0  0.91084  0.10520  0.83333  1.0000
  C   C4059     1.0  0.72813  0.16667  0.74417  1.0000
  C   C4060     1.0  0.72813  0.16667  0.92251  1.0000
  C   C4061     1.0  0.93853  0.16667  0.92251  1.0000
  C   C4062     1.0  0.93853  0.16667  0.74417  1.0000
  C   C4063     1.0  0.92251  0.00000  0.89480  1.0000
  C   C4064     1.0  0.74417  0.00000  0.77187  1.0000
  C   C4065     1.0  0.92251  0.00000  0.77187  1.0000
  C   C4066     1.0  0.89480  0.08916  0.83333  1.0000
  C   C4067     1.0  0.89480  0.24417  0.83333  1.0000
  C   C4068     1.0  0.77187  0.24417  0.83333  1.0000
  C   C4069     1.0  0.83333  0.06147  0.92251  1.0000
  C   C4070     1.0  0.83333  0.06147  0.74417  1.0000
  C   C4071     1.0  0.83333  0.27187  0.92251  1.0000
  C   C4072     1.0  0.83333  0.08916  0.77187  1.0000
  C   C4073     1.0  0.83333  0.24417  0.89480  1.0000
  C   C4074     1.0  0.83333  0.08916  0.89480  1.0000
  C   C4075     1.0  0.92251  0.06147  0.83333  1.0000
  C   C4076     1.0  0.74417  0.27187  0.83333  1.0000
  C   C4077     1.0  0.92251  0.27187  0.83333  1.0000
  C   C4078     1.0  0.89480  0.00000  0.74417  1.0000
  C   C4079     1.0  0.89480  0.00000  0.92251  1.0000
  C   C4080     1.0  0.77187  0.00000  0.74417  1.0000
  C   C4081     1.0  0.92251  0.16667  0.72813  1.0000
  C   C4082     1.0  0.74417  0.16667  0.72813  1.0000
  C   C4083     1.0  0.74417  0.16667  0.93853  1.0000
  C   C4084     1.0  0.92251  0.16667  0.93853  1.0000
  C   C4085     1.0  0.89480  0.25585  0.66667  1.0000
  C   C4086     1.0  0.77187  0.07750  0.66667  1.0000
  C   C4087     1.0  0.83333  0.22813  0.91084  1.0000
  C   C4088     1.0  0.83333  0.10520  0.91084  1.0000
  C   C4089     1.0  0.83333  0.10520  0.75583  1.0000
  C   C4090     1.0  0.83333  0.25585  0.93853  1.0000
  C   C4091     1.0  0.83333  0.07750  0.93853  1.0000
  C   C4092     1.0  0.83333  0.07750  0.72813  1.0000
  C   C4093     1.0  0.92251  0.22813  0.66667  1.0000
  C   C4094     1.0  0.74417  0.10520  0.66667  1.0000
  C   C4095     1.0  0.89480  0.16667  0.91084  1.0000
  C   C4096     1.0  0.89480  0.16667  0.75583  1.0000
  C   C4097     1.0  0.77187  0.16667  0.75583  1.0000
  C   C4098     1.0  0.77187  0.16667  0.91084  1.0000
  H   H1865     1.0  0.75968  0.00000  0.71196  1.0000
  H   H1866     1.0  0.90699  0.00000  0.71196  1.0000
  H   H1867     1.0  0.90699  0.00000  0.95470  1.0000
  H   H1868     1.0  0.71196  0.09301  0.66667  1.0000
  H   H1869     1.0  0.95470  0.24032  0.66667  1.0000
  H   H1870     1.0  0.66667  0.04530  0.75968  1.0000
  H   H1871     1.0  0.66667  0.28804  0.90699  1.0000
  H   H1872     1.0  0.66667  0.24032  0.95470  1.0000
  H   H1873     1.0  0.66667  0.09301  0.71196  1.0000
  H   H1874     1.0  0.75968  0.04530  0.66667  1.0000
  H   H1875     1.0  0.90699  0.28804  0.66667  1.0000
  H   H1876     1.0  0.71196  0.00000  0.75968  1.0000
  H   H1877     1.0  0.95470  0.00000  0.75968  1.0000
  H   H1878     1.0  0.95470  0.00000  0.90699  1.0000
  H   H1879     1.0  0.75968  0.16667  0.87863  1.0000
  H   H1880     1.0  0.90699  0.16667  0.87863  1.0000
  H   H1881     1.0  0.90699  0.16667  0.78804  1.0000
  H   H1882     1.0  0.75968  0.16667  0.78804  1.0000
  H   H1883     1.0  0.71196  0.25968  0.83333  1.0000
  H   H1884     1.0  0.95470  0.07366  0.83333  1.0000
  H   H1885     1.0  0.95470  0.25968  0.83333  1.0000
  H   H1886     1.0  0.66667  0.21196  0.92634  1.0000
  H   H1887     1.0  0.66667  0.12137  0.74032  1.0000
  H   H1888     1.0  0.66667  0.07366  0.78804  1.0000
  H   H1889     1.0  0.66667  0.25968  0.87863  1.0000
  H   H1890     1.0  0.75968  0.21196  0.83333  1.0000
  H   H1891     1.0  0.90699  0.21196  0.83333  1.0000
  H   H1892     1.0  0.90699  0.12137  0.83333  1.0000
  H   H1893     1.0  0.71196  0.16667  0.74032  1.0000
  H   H1894     1.0  0.71196  0.16667  0.92634  1.0000
  H   H1895     1.0  0.95470  0.16667  0.92634  1.0000
  H   H1896     1.0  0.95470  0.16667  0.74032  1.0000
  H   H1897     1.0  0.92634  0.00000  0.87863  1.0000
  H   H1898     1.0  0.74032  0.00000  0.78804  1.0000
  H   H1899     1.0  0.92634  0.00000  0.78804  1.0000
  H   H1900     1.0  0.87863  0.09301  0.83333  1.0000
  H   H1901     1.0  0.87863  0.24032  0.83333  1.0000
  H   H1902     1.0  0.78804  0.24032  0.83333  1.0000
  H   H1903     1.0  0.83333  0.04530  0.92634  1.0000
  H   H1904     1.0  0.83333  0.04530  0.74032  1.0000
  H   H1905     1.0  0.83333  0.28804  0.92634  1.0000
  H   H1906     1.0  0.83333  0.09301  0.78804  1.0000
  H   H1907     1.0  0.83333  0.24032  0.87863  1.0000
  H   H1908     1.0  0.83333  0.09301  0.87863  1.0000
  H   H1909     1.0  0.92634  0.04530  0.83333  1.0000
  H   H1910     1.0  0.74032  0.28804  0.83333  1.0000
  H   H1911     1.0  0.92634  0.28804  0.83333  1.0000
  H   H1912     1.0  0.87863  0.00000  0.74032  1.0000
  H   H1913     1.0  0.87863  0.00000  0.92634  1.0000
  H   H1914     1.0  0.78804  0.00000  0.74032  1.0000
  H   H1915     1.0  0.92634  0.16667  0.71196  1.0000
  H   H1916     1.0  0.74032  0.16667  0.71196  1.0000
  H   H1917     1.0  0.74032  0.16667  0.95470  1.0000
  H   H1918     1.0  0.92634  0.16667  0.95470  1.0000
  H   H1919     1.0  0.87863  0.25968  0.66667  1.0000
  H   H1920     1.0  0.78804  0.07366  0.66667  1.0000
  H   H1921     1.0  0.83333  0.21196  0.90699  1.0000
  H   H1922     1.0  0.83333  0.12137  0.90699  1.0000
  H   H1923     1.0  0.83333  0.12137  0.75968  1.0000
  H   H1924     1.0  0.83333  0.25968  0.95470  1.0000
  H   H1925     1.0  0.83333  0.07366  0.95470  1.0000
  H   H1926     1.0  0.83333  0.07366  0.71196  1.0000
  H   H1927     1.0  0.92634  0.21196  0.66667  1.0000
  H   H1928     1.0  0.74032  0.12137  0.66667  1.0000
  H   H1929     1.0  0.87863  0.16667  0.90699  1.0000
  H   H1930     1.0  0.87863  0.16667  0.75968  1.0000
  H   H1931     1.0  0.78804  0.16667  0.75968  1.0000
  H   H1932     1.0  0.78804  0.16667  0.90699  1.0000
  Zr  Zr601     1.0  0.70663  0.33333  0.66667  1.0000
  Zr  Zr602     1.0  0.96005  0.33333  0.66667  1.0000
  Zr  Zr603     1.0  0.66667  0.37330  0.66667  1.0000
  Zr  Zr604     1.0  0.66667  0.62671  0.66667  1.0000
  Zr  Zr605     1.0  0.66667  0.33333  0.70663  1.0000
  Zr  Zr606     1.0  0.66667  0.33333  0.96005  1.0000
  Zr  Zr607     1.0  0.70663  0.50000  0.83333  1.0000
  Zr  Zr608     1.0  0.96005  0.50000  0.83333  1.0000
  Zr  Zr609     1.0  0.66667  0.53997  0.83333  1.0000
  Zr  Zr610     1.0  0.66667  0.46003  0.83333  1.0000
  Zr  Zr611     1.0  0.66667  0.50000  0.87330  1.0000
  Zr  Zr612     1.0  0.66667  0.50000  0.79337  1.0000
  Zr  Zr613     1.0  0.87330  0.33333  0.83333  1.0000
  Zr  Zr614     1.0  0.79337  0.33333  0.83333  1.0000
  Zr  Zr615     1.0  0.83333  0.37330  0.83333  1.0000
  Zr  Zr616     1.0  0.83333  0.62671  0.83333  1.0000
  Zr  Zr617     1.0  0.83333  0.33333  0.87330  1.0000
  Zr  Zr618     1.0  0.83333  0.33333  0.79337  1.0000
  Zr  Zr619     1.0  0.87330  0.50000  0.66667  1.0000
  Zr  Zr620     1.0  0.79337  0.50000  0.66667  1.0000
  Zr  Zr621     1.0  0.83333  0.53997  0.66667  1.0000
  Zr  Zr622     1.0  0.83333  0.46003  0.66667  1.0000
  Zr  Zr623     1.0  0.83333  0.50000  0.70663  1.0000
  Zr  Zr624     1.0  0.83333  0.50000  0.96005  1.0000
  O   O3201     1.0  0.72349  0.33333  0.69844  1.0000
  O   O3202     1.0  0.94319  0.33333  0.69844  1.0000
  O   O3203     1.0  0.94319  0.33333  0.96824  1.0000
  O   O3204     1.0  0.72349  0.33333  0.96824  1.0000
  O   O3205     1.0  0.69844  0.39016  0.66667  1.0000
  O   O3206     1.0  0.69844  0.60986  0.66667  1.0000
  O   O3207     1.0  0.96824  0.60986  0.66667  1.0000
  O   O3208     1.0  0.96824  0.39016  0.66667  1.0000
  O   O3209     1.0  0.66667  0.36510  0.72349  1.0000
  O   O3210     1.0  0.66667  0.36510  0.94319  1.0000
  O   O3211     1.0  0.66667  0.63491  0.94319  1.0000
  O   O3212     1.0  0.66667  0.63491  0.72349  1.0000
  O   O3213     1.0  0.66667  0.39016  0.96824  1.0000
  O   O3214     1.0  0.66667  0.60986  0.96824  1.0000
  O   O3215     1.0  0.66667  0.60986  0.69844  1.0000
  O   O3216     1.0  0.66667  0.39016  0.69844  1.0000
  O   O3217     1.0  0.72349  0.36510  0.66667  1.0000
  O   O3218     1.0  0.94319  0.36510  0.66667  1.0000
  O   O3219     1.0  0.94319  0.63491  0.66667  1.0000
  O   O3220     1.0  0.72349  0.63491  0.66667  1.0000
  O   O3221     1.0  0.69844  0.33333  0.94319  1.0000
  O   O3222     1.0  0.69844  0.33333  0.72349  1.0000
  O   O3223     1.0  0.96824  0.33333  0.72349  1.0000
  O   O3224     1.0  0.96824  0.33333  0.94319  1.0000
  O   O3225     1.0  0.72349  0.50000  0.86510  1.0000
  O   O3226     1.0  0.94319  0.50000  0.86510  1.0000
  O   O3227     1.0  0.94319  0.50000  0.80156  1.0000
  O   O3228     1.0  0.72349  0.50000  0.80156  1.0000
  O   O3229     1.0  0.69844  0.55683  0.83333  1.0000
  O   O3230     1.0  0.69844  0.44317  0.83333  1.0000
  O   O3231     1.0  0.96824  0.44317  0.83333  1.0000
  O   O3232     1.0  0.96824  0.55683  0.83333  1.0000
  O   O3233     1.0  0.66667  0.53177  0.89016  1.0000
  O   O3234     1.0  0.66667  0.53177  0.77651  1.0000
  O   O3235     1.0  0.66667  0.46823  0.77651  1.0000
  O   O3236     1.0  0.66667  0.46823  0.89016  1.0000
  O   O3237     1.0  0.66667  0.55683  0.80156  1.0000
  O   O3238     1.0  0.66667  0.44317  0.80156  1.0000
  O   O3239     1.0  0.66667  0.44317  0.86510  1.0000
  O   O3240     1.0  0.66667  0.55683  0.86510  1.0000
  O   O3241     1.0  0.72349  0.53177  0.83333  1.0000
  O   O3242     1.0  0.94319  0.53177  0.83333  1.0000
  O   O3243     1.0  0.94319  0.46823  0.83333  1.0000
  O   O3244     1.0  0.72349  0.46823  0.83333  1.0000
  O   O3245     1.0  0.69844  0.50000  0.77651  1.0000
  O   O3246     1.0  0.69844  0.50000  0.89016  1.0000
  O   O3247     1.0  0.96824  0.50000  0.89016  1.0000
  O   O3248     1.0  0.96824  0.50000  0.77651  1.0000
  O   O3249     1.0  0.89016  0.33333  0.86510  1.0000
  O   O3250     1.0  0.77651  0.33333  0.86510  1.0000
  O   O3251     1.0  0.77651  0.33333  0.80156  1.0000
  O   O3252     1.0  0.89016  0.33333  0.80156  1.0000
  O   O3253     1.0  0.86510  0.39016  0.83333  1.0000
  O   O3254     1.0  0.86510  0.60986  0.83333  1.0000
  O   O3255     1.0  0.80156  0.60986  0.83333  1.0000
  O   O3256     1.0  0.80156  0.39016  0.83333  1.0000
  O   O3257     1.0  0.83333  0.36510  0.89016  1.0000
  O   O3258     1.0  0.83333  0.36510  0.77651  1.0000
  O   O3259     1.0  0.83333  0.63491  0.77651  1.0000
  O   O3260     1.0  0.83333  0.63491  0.89016  1.0000
  O   O3261     1.0  0.83333  0.39016  0.80156  1.0000
  O   O3262     1.0  0.83333  0.60986  0.80156  1.0000
  O   O3263     1.0  0.83333  0.60986  0.86510  1.0000
  O   O3264     1.0  0.83333  0.39016  0.86510  1.0000
  O   O3265     1.0  0.89016  0.36510  0.83333  1.0000
  O   O3266     1.0  0.77651  0.36510  0.83333  1.0000
  O   O3267     1.0  0.77651  0.63491  0.83333  1.0000
  O   O3268     1.0  0.89016  0.63491  0.83333  1.0000
  O   O3269     1.0  0.86510  0.33333  0.77651  1.0000
  O   O3270     1.0  0.86510  0.33333  0.89016  1.0000
  O   O3271     1.0  0.80156  0.33333  0.89016  1.0000
  O   O3272     1.0  0.80156  0.33333  0.77651  1.0000
  O   O3273     1.0  0.89016  0.50000  0.69844  1.0000
  O   O3274     1.0  0.77651  0.50000  0.69844  1.0000
  O   O3275     1.0  0.77651  0.50000  0.96824  1.0000
  O   O3276     1.0  0.89016  0.50000  0.96824  1.0000
  O   O3277     1.0  0.86510  0.55683  0.66667  1.0000
  O   O3278     1.0  0.86510  0.44317  0.66667  1.0000
  O   O3279     1.0  0.80156  0.44317  0.66667  1.0000
  O   O3280     1.0  0.80156  0.55683  0.66667  1.0000
  O   O3281     1.0  0.83333  0.53177  0.72349  1.0000
  O   O3282     1.0  0.83333  0.53177  0.94319  1.0000
  O   O3283     1.0  0.83333  0.46823  0.94319  1.0000
  O   O3284     1.0  0.83333  0.46823  0.72349  1.0000
  O   O3285     1.0  0.83333  0.55683  0.96824  1.0000
  O   O3286     1.0  0.83333  0.44317  0.96824  1.0000
  O   O3287     1.0  0.83333  0.44317  0.69844  1.0000
  O   O3288     1.0  0.83333  0.55683  0.69844  1.0000
  O   O3289     1.0  0.89016  0.53177  0.66667  1.0000
  O   O3290     1.0  0.77651  0.53177  0.66667  1.0000
  O   O3291     1.0  0.77651  0.46823  0.66667  1.0000
  O   O3292     1.0  0.89016  0.46823  0.66667  1.0000
  O   O3293     1.0  0.86510  0.50000  0.94319  1.0000
  O   O3294     1.0  0.86510  0.50000  0.72349  1.0000
  O   O3295     1.0  0.80156  0.50000  0.72349  1.0000
  O   O3296     1.0  0.80156  0.50000  0.94319  1.0000
  O   O3297     1.0  0.68536  0.64797  0.98130  1.0000
  O   O3298     1.0  0.98130  0.35203  0.98130  1.0000
  O   O3299     1.0  0.98130  0.64797  0.68536  1.0000
  O   O3300     1.0  0.68536  0.35203  0.68536  1.0000
  O   O3301     1.0  0.98130  0.35203  0.68536  1.0000
  O   O3302     1.0  0.68536  0.64797  0.68536  1.0000
  O   O3303     1.0  0.98130  0.64797  0.98130  1.0000
  O   O3304     1.0  0.68536  0.35203  0.98130  1.0000
  O   O3305     1.0  0.68536  0.48130  0.81464  1.0000
  O   O3306     1.0  0.98130  0.51870  0.81464  1.0000
  O   O3307     1.0  0.98130  0.48130  0.85203  1.0000
  O   O3308     1.0  0.68536  0.51870  0.85203  1.0000
  O   O3309     1.0  0.98130  0.51870  0.85203  1.0000
  O   O3310     1.0  0.68536  0.48130  0.85203  1.0000
  O   O3311     1.0  0.98130  0.48130  0.81464  1.0000
  O   O3312     1.0  0.68536  0.51870  0.81464  1.0000
  O   O3313     1.0  0.85203  0.64797  0.81464  1.0000
  O   O3314     1.0  0.81464  0.35203  0.81464  1.0000
  O   O3315     1.0  0.81464  0.64797  0.85203  1.0000
  O   O3316     1.0  0.85203  0.35203  0.85203  1.0000
  O   O3317     1.0  0.81464  0.35203  0.85203  1.0000
  O   O3318     1.0  0.85203  0.64797  0.85203  1.0000
  O   O3319     1.0  0.81464  0.64797  0.81464  1.0000
  O   O3320     1.0  0.85203  0.35203  0.81464  1.0000
  O   O3321     1.0  0.85203  0.48130  0.98130  1.0000
  O   O3322     1.0  0.81464  0.51870  0.98130  1.0000
  O   O3323     1.0  0.81464  0.48130  0.68536  1.0000
  O   O3324     1.0  0.85203  0.51870  0.68536  1.0000
  O   O3325     1.0  0.81464  0.51870  0.68536  1.0000
  O   O3326     1.0  0.85203  0.48130  0.68536  1.0000
  O   O3327     1.0  0.81464  0.48130  0.98130  1.0000
  O   O3328     1.0  0.85203  0.51870  0.98130  1.0000
  C   C4099     1.0  0.71787  0.33333  0.94881  1.0000
  C   C4100     1.0  0.94881  0.33333  0.94881  1.0000
  C   C4101     1.0  0.94881  0.33333  0.71787  1.0000
  C   C4102     1.0  0.71787  0.33333  0.71787  1.0000
  C   C4103     1.0  0.94881  0.38454  0.66667  1.0000
  C   C4104     1.0  0.94881  0.61548  0.66667  1.0000
  C   C4105     1.0  0.71787  0.61548  0.66667  1.0000
  C   C4106     1.0  0.71787  0.38454  0.66667  1.0000
  C   C4107     1.0  0.66667  0.61548  0.71787  1.0000
  C   C4108     1.0  0.66667  0.61548  0.94881  1.0000
  C   C4109     1.0  0.66667  0.38454  0.94881  1.0000
  C   C4110     1.0  0.66667  0.38454  0.71787  1.0000
  C   C4111     1.0  0.71787  0.50000  0.78214  1.0000
  C   C4112     1.0  0.94881  0.50000  0.78214  1.0000
  C   C4113     1.0  0.94881  0.50000  0.88454  1.0000
  C   C4114     1.0  0.71787  0.50000  0.88454  1.0000
  C   C4115     1.0  0.94881  0.55121  0.83333  1.0000
  C   C4116     1.0  0.94881  0.44881  0.83333  1.0000
  C   C4117     1.0  0.71787  0.44881  0.83333  1.0000
  C   C4118     1.0  0.71787  0.55121  0.83333  1.0000
  C   C4119     1.0  0.66667  0.44881  0.88454  1.0000
  C   C4120     1.0  0.66667  0.44881  0.78214  1.0000
  C   C4121     1.0  0.66667  0.55121  0.78214  1.0000
  C   C4122     1.0  0.66667  0.55121  0.88454  1.0000
  C   C4123     1.0  0.88454  0.33333  0.78214  1.0000
  C   C4124     1.0  0.78214  0.33333  0.78214  1.0000
  C   C4125     1.0  0.78214  0.33333  0.88454  1.0000
  C   C4126     1.0  0.88454  0.33333  0.88454  1.0000
  C   C4127     1.0  0.78214  0.38454  0.83333  1.0000
  C   C4128     1.0  0.78214  0.61548  0.83333  1.0000
  C   C4129     1.0  0.88454  0.61548  0.83333  1.0000
  C   C4130     1.0  0.88454  0.38454  0.83333  1.0000
  C   C4131     1.0  0.83333  0.61548  0.88454  1.0000
  C   C4132     1.0  0.83333  0.61548  0.78214  1.0000
  C   C4133     1.0  0.83333  0.38454  0.78214  1.0000
  C   C4134     1.0  0.83333  0.38454  0.88454  1.0000
  C   C4135     1.0  0.88454  0.50000  0.94881  1.0000
  C   C4136     1.0  0.78214  0.50000  0.94881  1.0000
  C   C4137     1.0  0.78214  0.50000  0.71787  1.0000
  C   C4138     1.0  0.88454  0.50000  0.71787  1.0000
  C   C4139     1.0  0.78214  0.55121  0.66667  1.0000
  C   C4140     1.0  0.78214  0.44881  0.66667  1.0000
  C   C4141     1.0  0.88454  0.44881  0.66667  1.0000
  C   C4142     1.0  0.88454  0.55121  0.66667  1.0000
  C   C4143     1.0  0.83333  0.44881  0.71787  1.0000
  C   C4144     1.0  0.83333  0.44881  0.94881  1.0000
  C   C4145     1.0  0.83333  0.55121  0.94881  1.0000
  C   C4146     1.0  0.83333  0.55121  0.71787  1.0000
  C   C4147     1.0  0.73501  0.33333  0.73501  1.0000
  C   C4148     1.0  0.73501  0.33333  0.93167  1.0000
  C   C4149     1.0  0.73501  0.40167  0.66667  1.0000
  C   C4150     1.0  0.73501  0.59834  0.66667  1.0000
  C   C4151     1.0  0.93167  0.59834  0.66667  1.0000
  C   C4152     1.0  0.93167  0.40167  0.66667  1.0000
  C   C4153     1.0  0.66667  0.40167  0.73501  1.0000
  C   C4154     1.0  0.66667  0.59834  0.93167  1.0000
  C   C4155     1.0  0.73501  0.50000  0.90167  1.0000
  C   C4156     1.0  0.93167  0.50000  0.90167  1.0000
  C   C4157     1.0  0.73501  0.50000  0.76501  1.0000
  C   C4158     1.0  0.73501  0.56834  0.83333  1.0000
  C   C4159     1.0  0.73501  0.43167  0.83333  1.0000
  C   C4160     1.0  0.93167  0.43167  0.83333  1.0000
  C   C4161     1.0  0.93167  0.56834  0.83333  1.0000
  C   C4162     1.0  0.66667  0.56834  0.90167  1.0000
  C   C4163     1.0  0.66667  0.43167  0.76501  1.0000
  C   C4164     1.0  0.76501  0.33333  0.90167  1.0000
  C   C4165     1.0  0.76501  0.33333  0.76501  1.0000
  C   C4166     1.0  0.90167  0.40167  0.83333  1.0000
  C   C4167     1.0  0.90167  0.59834  0.83333  1.0000
  C   C4168     1.0  0.76501  0.59834  0.83333  1.0000
  C   C4169     1.0  0.76501  0.40167  0.83333  1.0000
  C   C4170     1.0  0.83333  0.40167  0.76501  1.0000
  C   C4171     1.0  0.83333  0.59834  0.76501  1.0000
  C   C4172     1.0  0.76501  0.50000  0.73501  1.0000
  C   C4173     1.0  0.76501  0.50000  0.93167  1.0000
  C   C4174     1.0  0.90167  0.50000  0.93167  1.0000
  C   C4175     1.0  0.90167  0.56834  0.66667  1.0000
  C   C4176     1.0  0.90167  0.43167  0.66667  1.0000
  C   C4177     1.0  0.76501  0.43167  0.66667  1.0000
  C   C4178     1.0  0.76501  0.56834  0.66667  1.0000
  C   C4179     1.0  0.83333  0.56834  0.73501  1.0000
  C   C4180     1.0  0.83333  0.43167  0.73501  1.0000
  C   C4181     1.0  0.75583  0.33333  0.72813  1.0000
  C   C4182     1.0  0.75583  0.33333  0.93853  1.0000
  C   C4183     1.0  0.72813  0.42250  0.66667  1.0000
  C   C4184     1.0  0.72813  0.57750  0.66667  1.0000
  C   C4185     1.0  0.93853  0.57750  0.66667  1.0000
  C   C4186     1.0  0.93853  0.42250  0.66667  1.0000
  C   C4187     1.0  0.66667  0.39480  0.75583  1.0000
  C   C4188     1.0  0.66667  0.60520  0.91084  1.0000
  C   C4189     1.0  0.66667  0.57750  0.93853  1.0000
  C   C4190     1.0  0.66667  0.42250  0.72813  1.0000
  C   C4191     1.0  0.75583  0.39480  0.66667  1.0000
  C   C4192     1.0  0.91084  0.39480  0.66667  1.0000
  C   C4193     1.0  0.91084  0.60520  0.66667  1.0000
  C   C4194     1.0  0.75583  0.60520  0.66667  1.0000
  C   C4195     1.0  0.72813  0.33333  0.91084  1.0000
  C   C4196     1.0  0.72813  0.33333  0.75583  1.0000
  C   C4197     1.0  0.75583  0.50000  0.89480  1.0000
  C   C4198     1.0  0.91084  0.50000  0.89480  1.0000
  C   C4199     1.0  0.75583  0.50000  0.77187  1.0000
  C   C4200     1.0  0.72813  0.58918  0.83333  1.0000
  C   C4201     1.0  0.72813  0.41084  0.83333  1.0000
  C   C4202     1.0  0.93853  0.41084  0.83333  1.0000
  C   C4203     1.0  0.93853  0.58918  0.83333  1.0000
  C   C4204     1.0  0.66667  0.56147  0.92251  1.0000
  C   C4205     1.0  0.66667  0.43853  0.74417  1.0000
  C   C4206     1.0  0.66667  0.41084  0.77187  1.0000
  C   C4207     1.0  0.66667  0.58918  0.89480  1.0000
  C   C4208     1.0  0.75583  0.56147  0.83333  1.0000
  C   C4209     1.0  0.91084  0.56147  0.83333  1.0000
  C   C4210     1.0  0.91084  0.43853  0.83333  1.0000
  C   C4211     1.0  0.75583  0.43853  0.83333  1.0000
  C   C4212     1.0  0.72813  0.50000  0.74417  1.0000
  C   C4213     1.0  0.72813  0.50000  0.92251  1.0000
  C   C4214     1.0  0.93853  0.50000  0.92251  1.0000
  C   C4215     1.0  0.74417  0.33333  0.89480  1.0000
  C   C4216     1.0  0.74417  0.33333  0.77187  1.0000
  C   C4217     1.0  0.89480  0.42250  0.83333  1.0000
  C   C4218     1.0  0.89480  0.57750  0.83333  1.0000
  C   C4219     1.0  0.77187  0.57750  0.83333  1.0000
  C   C4220     1.0  0.77187  0.42250  0.83333  1.0000
  C   C4221     1.0  0.83333  0.39480  0.74417  1.0000
  C   C4222     1.0  0.83333  0.60520  0.74417  1.0000
  C   C4223     1.0  0.83333  0.42250  0.77187  1.0000
  C   C4224     1.0  0.83333  0.57750  0.77187  1.0000
  C   C4225     1.0  0.92251  0.39480  0.83333  1.0000
  C   C4226     1.0  0.74417  0.39480  0.83333  1.0000
  C   C4227     1.0  0.74417  0.60520  0.83333  1.0000
  C   C4228     1.0  0.92251  0.60520  0.83333  1.0000
  C   C4229     1.0  0.77187  0.33333  0.92251  1.0000
  C   C4230     1.0  0.77187  0.33333  0.74417  1.0000
  C   C4231     1.0  0.74417  0.50000  0.72813  1.0000
  C   C4232     1.0  0.74417  0.50000  0.93853  1.0000
  C   C4233     1.0  0.92251  0.50000  0.93853  1.0000
  C   C4234     1.0  0.89480  0.58918  0.66667  1.0000
  C   C4235     1.0  0.89480  0.41084  0.66667  1.0000
  C   C4236     1.0  0.77187  0.41084  0.66667  1.0000
  C   C4237     1.0  0.77187  0.58918  0.66667  1.0000
  C   C4238     1.0  0.83333  0.56147  0.75583  1.0000
  C   C4239     1.0  0.83333  0.43853  0.75583  1.0000
  C   C4240     1.0  0.83333  0.41084  0.72813  1.0000
  C   C4241     1.0  0.83333  0.58918  0.72813  1.0000
  C   C4242     1.0  0.92251  0.56147  0.66667  1.0000
  C   C4243     1.0  0.74417  0.56147  0.66667  1.0000
  C   C4244     1.0  0.74417  0.43853  0.66667  1.0000
  C   C4245     1.0  0.92251  0.43853  0.66667  1.0000
  C   C4246     1.0  0.89480  0.50000  0.91084  1.0000
  C   C4247     1.0  0.77187  0.50000  0.75583  1.0000
  C   C4248     1.0  0.77187  0.50000  0.91084  1.0000
  H   H1933     1.0  0.75968  0.33333  0.71196  1.0000
  H   H1934     1.0  0.75968  0.33333  0.95470  1.0000
  H   H1935     1.0  0.71196  0.42634  0.66667  1.0000
  H   H1936     1.0  0.71196  0.57366  0.66667  1.0000
  H   H1937     1.0  0.95470  0.57366  0.66667  1.0000
  H   H1938     1.0  0.95470  0.42634  0.66667  1.0000
  H   H1939     1.0  0.66667  0.37863  0.75968  1.0000
  H   H1940     1.0  0.66667  0.62137  0.90699  1.0000
  H   H1941     1.0  0.66667  0.57366  0.95470  1.0000
  H   H1942     1.0  0.66667  0.42634  0.71196  1.0000
  H   H1943     1.0  0.75968  0.37863  0.66667  1.0000
  H   H1944     1.0  0.90699  0.37863  0.66667  1.0000
  H   H1945     1.0  0.90699  0.62137  0.66667  1.0000
  H   H1946     1.0  0.75968  0.62137  0.66667  1.0000
  H   H1947     1.0  0.71196  0.33333  0.90699  1.0000
  H   H1948     1.0  0.71196  0.33333  0.75968  1.0000
  H   H1949     1.0  0.75968  0.50000  0.87863  1.0000
  H   H1950     1.0  0.90699  0.50000  0.87863  1.0000
  H   H1951     1.0  0.75968  0.50000  0.78804  1.0000
  H   H1952     1.0  0.71196  0.59301  0.83333  1.0000
  H   H1953     1.0  0.71196  0.40699  0.83333  1.0000
  H   H1954     1.0  0.95470  0.40699  0.83333  1.0000
  H   H1955     1.0  0.95470  0.59301  0.83333  1.0000
  H   H1956     1.0  0.66667  0.54530  0.92634  1.0000
  H   H1957     1.0  0.66667  0.45470  0.74032  1.0000
  H   H1958     1.0  0.66667  0.40699  0.78804  1.0000
  H   H1959     1.0  0.66667  0.59301  0.87863  1.0000
  H   H1960     1.0  0.75968  0.54530  0.83333  1.0000
  H   H1961     1.0  0.90699  0.54530  0.83333  1.0000
  H   H1962     1.0  0.90699  0.45470  0.83333  1.0000
  H   H1963     1.0  0.75968  0.45470  0.83333  1.0000
  H   H1964     1.0  0.71196  0.50000  0.74032  1.0000
  H   H1965     1.0  0.71196  0.50000  0.92634  1.0000
  H   H1966     1.0  0.95470  0.50000  0.92634  1.0000
  H   H1967     1.0  0.74032  0.33333  0.87863  1.0000
  H   H1968     1.0  0.74032  0.33333  0.78804  1.0000
  H   H1969     1.0  0.87863  0.42634  0.83333  1.0000
  H   H1970     1.0  0.87863  0.57366  0.83333  1.0000
  H   H1971     1.0  0.78804  0.57366  0.83333  1.0000
  H   H1972     1.0  0.78804  0.42634  0.83333  1.0000
  H   H1973     1.0  0.83333  0.37863  0.74032  1.0000
  H   H1974     1.0  0.83333  0.62137  0.74032  1.0000
  H   H1975     1.0  0.83333  0.42634  0.78804  1.0000
  H   H1976     1.0  0.83333  0.57366  0.78804  1.0000
  H   H1977     1.0  0.92634  0.37863  0.83333  1.0000
  H   H1978     1.0  0.74032  0.37863  0.83333  1.0000
  H   H1979     1.0  0.74032  0.62137  0.83333  1.0000
  H   H1980     1.0  0.92634  0.62137  0.83333  1.0000
  H   H1981     1.0  0.78804  0.33333  0.92634  1.0000
  H   H1982     1.0  0.78804  0.33333  0.74032  1.0000
  H   H1983     1.0  0.74032  0.50000  0.71196  1.0000
  H   H1984     1.0  0.74032  0.50000  0.95470  1.0000
  H   H1985     1.0  0.92634  0.50000  0.95470  1.0000
  H   H1986     1.0  0.87863  0.59301  0.66667  1.0000
  H   H1987     1.0  0.87863  0.40699  0.66667  1.0000
  H   H1988     1.0  0.78804  0.40699  0.66667  1.0000
  H   H1989     1.0  0.78804  0.59301  0.66667  1.0000
  H   H1990     1.0  0.83333  0.54530  0.75968  1.0000
  H   H1991     1.0  0.83333  0.45470  0.75968  1.0000
  H   H1992     1.0  0.83333  0.40699  0.71196  1.0000
  H   H1993     1.0  0.83333  0.59301  0.71196  1.0000
  H   H1994     1.0  0.92634  0.54530  0.66667  1.0000
  H   H1995     1.0  0.74032  0.54530  0.66667  1.0000
  H   H1996     1.0  0.74032  0.45470  0.66667  1.0000
  H   H1997     1.0  0.92634  0.45470  0.66667  1.0000
  H   H1998     1.0  0.87863  0.50000  0.90699  1.0000
  H   H1999     1.0  0.78804  0.50000  0.75968  1.0000
  H   H2000     1.0  0.78804  0.50000  0.90699  1.0000
  Zr  Zr625     1.0  0.70663  0.66667  0.66667  1.0000
  Zr  Zr626     1.0  0.96005  0.66667  0.66667  1.0000
  Zr  Zr627     1.0  0.66667  0.70663  0.66667  1.0000
  Zr  Zr628     1.0  0.66667  0.96005  0.66667  1.0000
  Zr  Zr629     1.0  0.66667  0.66667  0.70663  1.0000
  Zr  Zr630     1.0  0.66667  0.66667  0.96005  1.0000
  Zr  Zr631     1.0  0.70663  0.83333  0.83333  1.0000
  Zr  Zr632     1.0  0.96005  0.83333  0.83333  1.0000
  Zr  Zr633     1.0  0.66667  0.87330  0.83333  1.0000
  Zr  Zr634     1.0  0.66667  0.79337  0.83333  1.0000
  Zr  Zr635     1.0  0.66667  0.83333  0.87330  1.0000
  Zr  Zr636     1.0  0.66667  0.83333  0.79337  1.0000
  Zr  Zr637     1.0  0.87330  0.66667  0.83333  1.0000
  Zr  Zr638     1.0  0.79337  0.66667  0.83333  1.0000
  Zr  Zr639     1.0  0.83333  0.70663  0.83333  1.0000
  Zr  Zr640     1.0  0.83333  0.96005  0.83333  1.0000
  Zr  Zr641     1.0  0.83333  0.66667  0.87330  1.0000
  Zr  Zr642     1.0  0.83333  0.66667  0.79337  1.0000
  Zr  Zr643     1.0  0.87330  0.83333  0.66667  1.0000
  Zr  Zr644     1.0  0.79337  0.83333  0.66667  1.0000
  Zr  Zr645     1.0  0.83333  0.87330  0.66667  1.0000
  Zr  Zr646     1.0  0.83333  0.79337  0.66667  1.0000
  Zr  Zr647     1.0  0.83333  0.83333  0.70663  1.0000
  Zr  Zr648     1.0  0.83333  0.83333  0.96005  1.0000
  O   O3329     1.0  0.72349  0.66667  0.69844  1.0000
  O   O3330     1.0  0.94319  0.66667  0.69844  1.0000
  O   O3331     1.0  0.94319  0.66667  0.96824  1.0000
  O   O3332     1.0  0.72349  0.66667  0.96824  1.0000
  O   O3333     1.0  0.69844  0.72349  0.66667  1.0000
  O   O3334     1.0  0.69844  0.94319  0.66667  1.0000
  O   O3335     1.0  0.96824  0.94319  0.66667  1.0000
  O   O3336     1.0  0.96824  0.72349  0.66667  1.0000
  O   O3337     1.0  0.66667  0.69844  0.72349  1.0000
  O   O3338     1.0  0.66667  0.69844  0.94319  1.0000
  O   O3339     1.0  0.66667  0.96824  0.94319  1.0000
  O   O3340     1.0  0.66667  0.96824  0.72349  1.0000
  O   O3341     1.0  0.66667  0.72349  0.96824  1.0000
  O   O3342     1.0  0.66667  0.94319  0.96824  1.0000
  O   O3343     1.0  0.66667  0.94319  0.69844  1.0000
  O   O3344     1.0  0.66667  0.72349  0.69844  1.0000
  O   O3345     1.0  0.72349  0.69844  0.66667  1.0000
  O   O3346     1.0  0.94319  0.69844  0.66667  1.0000
  O   O3347     1.0  0.94319  0.96824  0.66667  1.0000
  O   O3348     1.0  0.72349  0.96824  0.66667  1.0000
  O   O3349     1.0  0.69844  0.66667  0.94319  1.0000
  O   O3350     1.0  0.69844  0.66667  0.72349  1.0000
  O   O3351     1.0  0.96824  0.66667  0.72349  1.0000
  O   O3352     1.0  0.96824  0.66667  0.94319  1.0000
  O   O3353     1.0  0.72349  0.83333  0.86510  1.0000
  O   O3354     1.0  0.94319  0.83333  0.86510  1.0000
  O   O3355     1.0  0.94319  0.83333  0.80156  1.0000
  O   O3356     1.0  0.72349  0.83333  0.80156  1.0000
  O   O3357     1.0  0.69844  0.89016  0.83333  1.0000
  O   O3358     1.0  0.69844  0.77651  0.83333  1.0000
  O   O3359     1.0  0.96824  0.77651  0.83333  1.0000
  O   O3360     1.0  0.96824  0.89016  0.83333  1.0000
  O   O3361     1.0  0.66667  0.86510  0.89016  1.0000
  O   O3362     1.0  0.66667  0.86510  0.77651  1.0000
  O   O3363     1.0  0.66667  0.80156  0.77651  1.0000
  O   O3364     1.0  0.66667  0.80156  0.89016  1.0000
  O   O3365     1.0  0.66667  0.89016  0.80156  1.0000
  O   O3366     1.0  0.66667  0.77651  0.80156  1.0000
  O   O3367     1.0  0.66667  0.77651  0.86510  1.0000
  O   O3368     1.0  0.66667  0.89016  0.86510  1.0000
  O   O3369     1.0  0.72349  0.86510  0.83333  1.0000
  O   O3370     1.0  0.94319  0.86510  0.83333  1.0000
  O   O3371     1.0  0.94319  0.80156  0.83333  1.0000
  O   O3372     1.0  0.72349  0.80156  0.83333  1.0000
  O   O3373     1.0  0.69844  0.83333  0.77651  1.0000
  O   O3374     1.0  0.69844  0.83333  0.89016  1.0000
  O   O3375     1.0  0.96824  0.83333  0.89016  1.0000
  O   O3376     1.0  0.96824  0.83333  0.77651  1.0000
  O   O3377     1.0  0.89016  0.66667  0.86510  1.0000
  O   O3378     1.0  0.77651  0.66667  0.86510  1.0000
  O   O3379     1.0  0.77651  0.66667  0.80156  1.0000
  O   O3380     1.0  0.89016  0.66667  0.80156  1.0000
  O   O3381     1.0  0.86510  0.72349  0.83333  1.0000
  O   O3382     1.0  0.86510  0.94319  0.83333  1.0000
  O   O3383     1.0  0.80156  0.94319  0.83333  1.0000
  O   O3384     1.0  0.80156  0.72349  0.83333  1.0000
  O   O3385     1.0  0.83333  0.69844  0.89016  1.0000
  O   O3386     1.0  0.83333  0.69844  0.77651  1.0000
  O   O3387     1.0  0.83333  0.96824  0.77651  1.0000
  O   O3388     1.0  0.83333  0.96824  0.89016  1.0000
  O   O3389     1.0  0.83333  0.72349  0.80156  1.0000
  O   O3390     1.0  0.83333  0.94319  0.80156  1.0000
  O   O3391     1.0  0.83333  0.94319  0.86510  1.0000
  O   O3392     1.0  0.83333  0.72349  0.86510  1.0000
  O   O3393     1.0  0.89016  0.69844  0.83333  1.0000
  O   O3394     1.0  0.77651  0.69844  0.83333  1.0000
  O   O3395     1.0  0.77651  0.96824  0.83333  1.0000
  O   O3396     1.0  0.89016  0.96824  0.83333  1.0000
  O   O3397     1.0  0.86510  0.66667  0.77651  1.0000
  O   O3398     1.0  0.86510  0.66667  0.89016  1.0000
  O   O3399     1.0  0.80156  0.66667  0.89016  1.0000
  O   O3400     1.0  0.80156  0.66667  0.77651  1.0000
  O   O3401     1.0  0.89016  0.83333  0.69844  1.0000
  O   O3402     1.0  0.77651  0.83333  0.69844  1.0000
  O   O3403     1.0  0.77651  0.83333  0.96824  1.0000
  O   O3404     1.0  0.89016  0.83333  0.96824  1.0000
  O   O3405     1.0  0.86510  0.89016  0.66667  1.0000
  O   O3406     1.0  0.86510  0.77651  0.66667  1.0000
  O   O3407     1.0  0.80156  0.77651  0.66667  1.0000
  O   O3408     1.0  0.80156  0.89016  0.66667  1.0000
  O   O3409     1.0  0.83333  0.86510  0.72349  1.0000
  O   O3410     1.0  0.83333  0.86510  0.94319  1.0000
  O   O3411     1.0  0.83333  0.80156  0.94319  1.0000
  O   O3412     1.0  0.83333  0.80156  0.72349  1.0000
  O   O3413     1.0  0.83333  0.89016  0.96824  1.0000
  O   O3414     1.0  0.83333  0.77651  0.96824  1.0000
  O   O3415     1.0  0.83333  0.77651  0.69844  1.0000
  O   O3416     1.0  0.83333  0.89016  0.69844  1.0000
  O   O3417     1.0  0.89016  0.86510  0.66667  1.0000
  O   O3418     1.0  0.77651  0.86510  0.66667  1.0000
  O   O3419     1.0  0.77651  0.80156  0.66667  1.0000
  O   O3420     1.0  0.89016  0.80156  0.66667  1.0000
  O   O3421     1.0  0.86510  0.83333  0.94319  1.0000
  O   O3422     1.0  0.86510  0.83333  0.72349  1.0000
  O   O3423     1.0  0.80156  0.83333  0.72349  1.0000
  O   O3424     1.0  0.80156  0.83333  0.94319  1.0000
  O   O3425     1.0  0.68536  0.98130  0.98130  1.0000
  O   O3426     1.0  0.98130  0.68536  0.98130  1.0000
  O   O3427     1.0  0.98130  0.98130  0.68536  1.0000
  O   O3428     1.0  0.68536  0.68536  0.68536  1.0000
  O   O3429     1.0  0.98130  0.68536  0.68536  1.0000
  O   O3430     1.0  0.68536  0.98130  0.68536  1.0000
  O   O3431     1.0  0.98130  0.98130  0.98130  1.0000
  O   O3432     1.0  0.68536  0.68536  0.98130  1.0000
  O   O3433     1.0  0.68536  0.81464  0.81464  1.0000
  O   O3434     1.0  0.98130  0.85203  0.81464  1.0000
  O   O3435     1.0  0.98130  0.81464  0.85203  1.0000
  O   O3436     1.0  0.68536  0.85203  0.85203  1.0000
  O   O3437     1.0  0.98130  0.85203  0.85203  1.0000
  O   O3438     1.0  0.68536  0.81464  0.85203  1.0000
  O   O3439     1.0  0.98130  0.81464  0.81464  1.0000
  O   O3440     1.0  0.68536  0.85203  0.81464  1.0000
  O   O3441     1.0  0.85203  0.98130  0.81464  1.0000
  O   O3442     1.0  0.81464  0.68536  0.81464  1.0000
  O   O3443     1.0  0.81464  0.98130  0.85203  1.0000
  O   O3444     1.0  0.85203  0.68536  0.85203  1.0000
  O   O3445     1.0  0.81464  0.68536  0.85203  1.0000
  O   O3446     1.0  0.85203  0.98130  0.85203  1.0000
  O   O3447     1.0  0.81464  0.98130  0.81464  1.0000
  O   O3448     1.0  0.85203  0.68536  0.81464  1.0000
  O   O3449     1.0  0.85203  0.81464  0.98130  1.0000
  O   O3450     1.0  0.81464  0.85203  0.98130  1.0000
  O   O3451     1.0  0.81464  0.81464  0.68536  1.0000
  O   O3452     1.0  0.85203  0.85203  0.68536  1.0000
  O   O3453     1.0  0.81464  0.85203  0.68536  1.0000
  O   O3454     1.0  0.85203  0.81464  0.68536  1.0000
  O   O3455     1.0  0.81464  0.81464  0.98130  1.0000
  O   O3456     1.0  0.85203  0.85203  0.98130  1.0000
  C   C4249     1.0  0.71787  0.66667  0.94881  1.0000
  C   C4250     1.0  0.94881  0.66667  0.94881  1.0000
  C   C4251     1.0  0.94881  0.66667  0.71787  1.0000
  C   C4252     1.0  0.71787  0.66667  0.71787  1.0000
  C   C4253     1.0  0.94881  0.71787  0.66667  1.0000
  C   C4254     1.0  0.94881  0.94881  0.66667  1.0000
  C   C4255     1.0  0.71787  0.94881  0.66667  1.0000
  C   C4256     1.0  0.71787  0.71787  0.66667  1.0000
  C   C4257     1.0  0.66667  0.94881  0.71787  1.0000
  C   C4258     1.0  0.66667  0.94881  0.94881  1.0000
  C   C4259     1.0  0.66667  0.71787  0.94881  1.0000
  C   C4260     1.0  0.66667  0.71787  0.71787  1.0000
  C   C4261     1.0  0.71787  0.83333  0.78214  1.0000
  C   C4262     1.0  0.94881  0.83333  0.78214  1.0000
  C   C4263     1.0  0.94881  0.83333  0.88454  1.0000
  C   C4264     1.0  0.71787  0.83333  0.88454  1.0000
  C   C4265     1.0  0.94881  0.88454  0.83333  1.0000
  C   C4266     1.0  0.94881  0.78214  0.83333  1.0000
  C   C4267     1.0  0.71787  0.78214  0.83333  1.0000
  C   C4268     1.0  0.71787  0.88454  0.83333  1.0000
  C   C4269     1.0  0.66667  0.78214  0.88454  1.0000
  C   C4270     1.0  0.66667  0.78214  0.78214  1.0000
  C   C4271     1.0  0.66667  0.88454  0.78214  1.0000
  C   C4272     1.0  0.66667  0.88454  0.88454  1.0000
  C   C4273     1.0  0.88454  0.66667  0.78214  1.0000
  C   C4274     1.0  0.78214  0.66667  0.78214  1.0000
  C   C4275     1.0  0.78214  0.66667  0.88454  1.0000
  C   C4276     1.0  0.88454  0.66667  0.88454  1.0000
  C   C4277     1.0  0.78214  0.71787  0.83333  1.0000
  C   C4278     1.0  0.78214  0.94881  0.83333  1.0000
  C   C4279     1.0  0.88454  0.94881  0.83333  1.0000
  C   C4280     1.0  0.88454  0.71787  0.83333  1.0000
  C   C4281     1.0  0.83333  0.94881  0.88454  1.0000
  C   C4282     1.0  0.83333  0.94881  0.78214  1.0000
  C   C4283     1.0  0.83333  0.71787  0.78214  1.0000
  C   C4284     1.0  0.83333  0.71787  0.88454  1.0000
  C   C4285     1.0  0.88454  0.83333  0.94881  1.0000
  C   C4286     1.0  0.78214  0.83333  0.94881  1.0000
  C   C4287     1.0  0.78214  0.83333  0.71787  1.0000
  C   C4288     1.0  0.88454  0.83333  0.71787  1.0000
  C   C4289     1.0  0.78214  0.88454  0.66667  1.0000
  C   C4290     1.0  0.78214  0.78214  0.66667  1.0000
  C   C4291     1.0  0.88454  0.78214  0.66667  1.0000
  C   C4292     1.0  0.88454  0.88454  0.66667  1.0000
  C   C4293     1.0  0.83333  0.78214  0.71787  1.0000
  C   C4294     1.0  0.83333  0.78214  0.94881  1.0000
  C   C4295     1.0  0.83333  0.88454  0.94881  1.0000
  C   C4296     1.0  0.83333  0.88454  0.71787  1.0000
  C   C4297     1.0  0.73501  0.66667  0.73501  1.0000
  C   C4298     1.0  0.93167  0.66667  0.73501  1.0000
  C   C4299     1.0  0.93167  0.66667  0.93167  1.0000
  C   C4300     1.0  0.73501  0.73501  0.66667  1.0000
  C   C4301     1.0  0.73501  0.93167  0.66667  1.0000
  C   C4302     1.0  0.93167  0.73501  0.66667  1.0000
  C   C4303     1.0  0.66667  0.73501  0.73501  1.0000
  C   C4304     1.0  0.66667  0.73501  0.93167  1.0000
  C   C4305     1.0  0.66667  0.93167  0.93167  1.0000
  C   C4306     1.0  0.66667  0.93167  0.73501  1.0000
  C   C4307     1.0  0.93167  0.83333  0.76501  1.0000
  C   C4308     1.0  0.73501  0.83333  0.76501  1.0000
  C   C4309     1.0  0.73501  0.90167  0.83333  1.0000
  C   C4310     1.0  0.93167  0.76501  0.83333  1.0000
  C   C4311     1.0  0.93167  0.90167  0.83333  1.0000
  C   C4312     1.0  0.66667  0.90167  0.90167  1.0000
  C   C4313     1.0  0.66667  0.90167  0.76501  1.0000
  C   C4314     1.0  0.66667  0.76501  0.76501  1.0000
  C   C4315     1.0  0.66667  0.76501  0.90167  1.0000
  C   C4316     1.0  0.90167  0.66667  0.90167  1.0000
  C   C4317     1.0  0.76501  0.66667  0.76501  1.0000
  C   C4318     1.0  0.90167  0.66667  0.76501  1.0000
  C   C4319     1.0  0.90167  0.73501  0.83333  1.0000
  C   C4320     1.0  0.90167  0.93167  0.83333  1.0000
  C   C4321     1.0  0.76501  0.93167  0.83333  1.0000
  C   C4322     1.0  0.83333  0.73501  0.76501  1.0000
  C   C4323     1.0  0.83333  0.93167  0.76501  1.0000
  C   C4324     1.0  0.83333  0.93167  0.90167  1.0000
  C   C4325     1.0  0.90167  0.83333  0.73501  1.0000
  C   C4326     1.0  0.76501  0.83333  0.73501  1.0000
  C   C4327     1.0  0.90167  0.76501  0.66667  1.0000
  C   C4328     1.0  0.76501  0.76501  0.66667  1.0000
  C   C4329     1.0  0.76501  0.90167  0.66667  1.0000
  C   C4330     1.0  0.83333  0.90167  0.73501  1.0000
  C   C4331     1.0  0.83333  0.90167  0.93167  1.0000
  C   C4332     1.0  0.83333  0.76501  0.73501  1.0000
  C   C4333     1.0  0.75583  0.66667  0.72813  1.0000
  C   C4334     1.0  0.91084  0.66667  0.72813  1.0000
  C   C4335     1.0  0.91084  0.66667  0.93853  1.0000
  C   C4336     1.0  0.72813  0.75583  0.66667  1.0000
  C   C4337     1.0  0.72813  0.91084  0.66667  1.0000
  C   C4338     1.0  0.93853  0.75583  0.66667  1.0000
  C   C4339     1.0  0.66667  0.72813  0.75583  1.0000
  C   C4340     1.0  0.66667  0.72813  0.91084  1.0000
  C   C4341     1.0  0.66667  0.93853  0.91084  1.0000
  C   C4342     1.0  0.66667  0.93853  0.75583  1.0000
  C   C4343     1.0  0.66667  0.75583  0.93853  1.0000
  C   C4344     1.0  0.66667  0.91084  0.93853  1.0000
  C   C4345     1.0  0.66667  0.91084  0.72813  1.0000
  C   C4346     1.0  0.66667  0.75583  0.72813  1.0000
  C   C4347     1.0  0.75583  0.72813  0.66667  1.0000
  C   C4348     1.0  0.91084  0.72813  0.66667  1.0000
  C   C4349     1.0  0.75583  0.93853  0.66667  1.0000
  C   C4350     1.0  0.72813  0.66667  0.75583  1.0000
  C   C4351     1.0  0.93853  0.66667  0.75583  1.0000
  C   C4352     1.0  0.93853  0.66667  0.91084  1.0000
  C   C4353     1.0  0.91084  0.83333  0.77187  1.0000
  C   C4354     1.0  0.75583  0.83333  0.77187  1.0000
  C   C4355     1.0  0.72813  0.92251  0.83333  1.0000
  C   C4356     1.0  0.93853  0.74417  0.83333  1.0000
  C   C4357     1.0  0.93853  0.92251  0.83333  1.0000
  C   C4358     1.0  0.66667  0.89480  0.92251  1.0000
  C   C4359     1.0  0.66667  0.89480  0.74417  1.0000
  C   C4360     1.0  0.66667  0.77187  0.74417  1.0000
  C   C4361     1.0  0.66667  0.77187  0.92251  1.0000
  C   C4362     1.0  0.66667  0.92251  0.77187  1.0000
  C   C4363     1.0  0.66667  0.74417  0.77187  1.0000
  C   C4364     1.0  0.66667  0.74417  0.89480  1.0000
  C   C4365     1.0  0.66667  0.92251  0.89480  1.0000
  C   C4366     1.0  0.75583  0.89480  0.83333  1.0000
  C   C4367     1.0  0.91084  0.89480  0.83333  1.0000
  C   C4368     1.0  0.91084  0.77187  0.83333  1.0000
  C   C4369     1.0  0.72813  0.83333  0.74417  1.0000
  C   C4370     1.0  0.93853  0.83333  0.74417  1.0000
  C   C4371     1.0  0.92251  0.66667  0.89480  1.0000
  C   C4372     1.0  0.74417  0.66667  0.77187  1.0000
  C   C4373     1.0  0.92251  0.66667  0.77187  1.0000
  C   C4374     1.0  0.89480  0.75583  0.83333  1.0000
  C   C4375     1.0  0.89480  0.91084  0.83333  1.0000
  C   C4376     1.0  0.77187  0.91084  0.83333  1.0000
  C   C4377     1.0  0.83333  0.72813  0.74417  1.0000
  C   C4378     1.0  0.83333  0.93853  0.74417  1.0000
  C   C4379     1.0  0.83333  0.93853  0.92251  1.0000
  C   C4380     1.0  0.83333  0.75583  0.77187  1.0000
  C   C4381     1.0  0.83333  0.91084  0.77187  1.0000
  C   C4382     1.0  0.83333  0.91084  0.89480  1.0000
  C   C4383     1.0  0.92251  0.72813  0.83333  1.0000
  C   C4384     1.0  0.74417  0.93853  0.83333  1.0000
  C   C4385     1.0  0.92251  0.93853  0.83333  1.0000
  C   C4386     1.0  0.89480  0.66667  0.74417  1.0000
  C   C4387     1.0  0.89480  0.66667  0.92251  1.0000
  C   C4388     1.0  0.77187  0.66667  0.74417  1.0000
  C   C4389     1.0  0.92251  0.83333  0.72813  1.0000
  C   C4390     1.0  0.74417  0.83333  0.72813  1.0000
  C   C4391     1.0  0.89480  0.74417  0.66667  1.0000
  C   C4392     1.0  0.77187  0.74417  0.66667  1.0000
  C   C4393     1.0  0.77187  0.92251  0.66667  1.0000
  C   C4394     1.0  0.83333  0.89480  0.75583  1.0000
  C   C4395     1.0  0.83333  0.89480  0.91084  1.0000
  C   C4396     1.0  0.83333  0.77187  0.75583  1.0000
  C   C4397     1.0  0.83333  0.92251  0.93853  1.0000
  C   C4398     1.0  0.83333  0.74417  0.72813  1.0000
  C   C4399     1.0  0.83333  0.92251  0.72813  1.0000
  C   C4400     1.0  0.74417  0.89480  0.66667  1.0000
  C   C4401     1.0  0.74417  0.77187  0.66667  1.0000
  C   C4402     1.0  0.92251  0.77187  0.66667  1.0000
  C   C4403     1.0  0.89480  0.83333  0.75583  1.0000
  C   C4404     1.0  0.77187  0.83333  0.75583  1.0000
  H   H2001     1.0  0.75968  0.66667  0.71196  1.0000
  H   H2002     1.0  0.90699  0.66667  0.71196  1.0000
  H   H2003     1.0  0.90699  0.66667  0.95470  1.0000
  H   H2004     1.0  0.71196  0.75968  0.66667  1.0000
  H   H2005     1.0  0.71196  0.90699  0.66667  1.0000
  H   H2006     1.0  0.95470  0.75968  0.66667  1.0000
  H   H2007     1.0  0.66667  0.71196  0.75968  1.0000
  H   H2008     1.0  0.66667  0.71196  0.90699  1.0000
  H   H2009     1.0  0.66667  0.95470  0.90699  1.0000
  H   H2010     1.0  0.66667  0.95470  0.75968  1.0000
  H   H2011     1.0  0.66667  0.75968  0.95470  1.0000
  H   H2012     1.0  0.66667  0.90699  0.95470  1.0000
  H   H2013     1.0  0.66667  0.90699  0.71196  1.0000
  H   H2014     1.0  0.66667  0.75968  0.71196  1.0000
  H   H2015     1.0  0.75968  0.71196  0.66667  1.0000
  H   H2016     1.0  0.90699  0.71196  0.66667  1.0000
  H   H2017     1.0  0.75968  0.95470  0.66667  1.0000
  H   H2018     1.0  0.71196  0.66667  0.75968  1.0000
  H   H2019     1.0  0.95470  0.66667  0.75968  1.0000
  H   H2020     1.0  0.95470  0.66667  0.90699  1.0000
  H   H2021     1.0  0.90699  0.83333  0.78804  1.0000
  H   H2022     1.0  0.75968  0.83333  0.78804  1.0000
  H   H2023     1.0  0.71196  0.92634  0.83333  1.0000
  H   H2024     1.0  0.95470  0.74032  0.83333  1.0000
  H   H2025     1.0  0.95470  0.92634  0.83333  1.0000
  H   H2026     1.0  0.66667  0.87863  0.92634  1.0000
  H   H2027     1.0  0.66667  0.87863  0.74032  1.0000
  H   H2028     1.0  0.66667  0.78804  0.74032  1.0000
  H   H2029     1.0  0.66667  0.78804  0.92634  1.0000
  H   H2030     1.0  0.66667  0.92634  0.78804  1.0000
  H   H2031     1.0  0.66667  0.74032  0.78804  1.0000
  H   H2032     1.0  0.66667  0.74032  0.87863  1.0000
  H   H2033     1.0  0.66667  0.92634  0.87863  1.0000
  H   H2034     1.0  0.75968  0.87863  0.83333  1.0000
  H   H2035     1.0  0.90699  0.87863  0.83333  1.0000
  H   H2036     1.0  0.90699  0.78804  0.83333  1.0000
  H   H2037     1.0  0.71196  0.83333  0.74032  1.0000
  H   H2038     1.0  0.95470  0.83333  0.74032  1.0000
  H   H2039     1.0  0.92634  0.66667  0.87863  1.0000
  H   H2040     1.0  0.74032  0.66667  0.78804  1.0000
  H   H2041     1.0  0.92634  0.66667  0.78804  1.0000
  H   H2042     1.0  0.87863  0.75968  0.83333  1.0000
  H   H2043     1.0  0.87863  0.90699  0.83333  1.0000
  H   H2044     1.0  0.78804  0.90699  0.83333  1.0000
  H   H2045     1.0  0.83333  0.71196  0.74032  1.0000
  H   H2046     1.0  0.83333  0.95470  0.74032  1.0000
  H   H2047     1.0  0.83333  0.95470  0.92634  1.0000
  H   H2048     1.0  0.83333  0.75968  0.78804  1.0000
  H   H2049     1.0  0.83333  0.90699  0.78804  1.0000
  H   H2050     1.0  0.83333  0.90699  0.87863  1.0000
  H   H2051     1.0  0.92634  0.71196  0.83333  1.0000
  H   H2052     1.0  0.74032  0.95470  0.83333  1.0000
  H   H2053     1.0  0.92634  0.95470  0.83333  1.0000
  H   H2054     1.0  0.87863  0.66667  0.74032  1.0000
  H   H2055     1.0  0.87863  0.66667  0.92634  1.0000
  H   H2056     1.0  0.78804  0.66667  0.74032  1.0000
  H   H2057     1.0  0.92634  0.83333  0.71196  1.0000
  H   H2058     1.0  0.74032  0.83333  0.71196  1.0000
  H   H2059     1.0  0.87863  0.74032  0.66667  1.0000
  H   H2060     1.0  0.78804  0.74032  0.66667  1.0000
  H   H2061     1.0  0.78804  0.92634  0.66667  1.0000
  H   H2062     1.0  0.83333  0.87863  0.75968  1.0000
  H   H2063     1.0  0.83333  0.87863  0.90699  1.0000
  H   H2064     1.0  0.83333  0.78804  0.75968  1.0000
  H   H2065     1.0  0.83333  0.92634  0.95470  1.0000
  H   H2066     1.0  0.83333  0.74032  0.71196  1.0000
  H   H2067     1.0  0.83333  0.92634  0.71196  1.0000
  H   H2068     1.0  0.74032  0.87863  0.66667  1.0000
  H   H2069     1.0  0.74032  0.78804  0.66667  1.0000
  H   H2070     1.0  0.92634  0.78804  0.66667  1.0000
  H   H2071     1.0  0.87863  0.83333  0.75968  1.0000
  H   H2072     1.0  0.78804  0.83333  0.75968  1.0000
  H   H2073     1.0  0.02657  0.97331  0.97315  1.0000
  H   H2074     1.0  0.97196  0.97310  0.02637  1.0000
  H   H2075     1.0  0.97254  0.02607  0.97273  1.0000
  H   H2076     1.0  0.02703  0.02796  0.02813  1.0000
  H   H2077     1.0  0.35990  0.97315  0.02671  1.0000
  H   H2078     1.0  0.30529  0.02637  0.02692  1.0000
  H   H2079     1.0  0.30587  0.97273  0.97395  1.0000
  H   H2080     1.0  0.36036  0.02813  0.97205  1.0000
  H   H2081     1.0  0.97315  0.36004  0.02657  1.0000
  H   H2082     1.0  0.02637  0.36025  0.97196  1.0000
  H   H2083     1.0  0.97273  0.30728  0.97254  1.0000
  H   H2084     1.0  0.02813  0.30539  0.02703  1.0000
  H   H2085     1.0  0.97343  0.02671  0.30649  1.0000
  H   H2086     1.0  0.02804  0.02692  0.35970  1.0000
  H   H2087     1.0  0.02746  0.97395  0.30606  1.0000
  H   H2088     1.0  0.97297  0.97205  0.36146  1.0000
  H   H2089     1.0  0.02685  0.19323  0.19337  1.0000
  H   H2090     1.0  0.97363  0.13863  0.19359  1.0000
  H   H2091     1.0  0.02726  0.13920  0.14061  1.0000
  H   H2092     1.0  0.97187  0.19370  0.13872  1.0000
  H   H2093     1.0  0.30664  0.13982  0.19323  1.0000
  H   H2094     1.0  0.30643  0.19303  0.13863  1.0000
  H   H2095     1.0  0.35940  0.13939  0.13920  1.0000
  H   H2096     1.0  0.36129  0.19479  0.19370  1.0000
  H   H2097     1.0  0.13982  0.02671  0.19323  1.0000
  H   H2098     1.0  0.19303  0.02692  0.13863  1.0000
  H   H2099     1.0  0.13939  0.97395  0.13920  1.0000
  H   H2100     1.0  0.19479  0.97205  0.19370  1.0000
  H   H2101     1.0  0.19337  0.30677  0.19351  1.0000
  H   H2102     1.0  0.19359  0.36137  0.14030  1.0000
  H   H2103     1.0  0.14061  0.36080  0.19393  1.0000
  H   H2104     1.0  0.13872  0.30630  0.13854  1.0000
  H   H2105     1.0  0.19351  0.14010  0.97331  1.0000
  H   H2106     1.0  0.14030  0.19471  0.97310  1.0000
  H   H2107     1.0  0.19394  0.19413  0.02606  1.0000
  H   H2108     1.0  0.13854  0.13964  0.02796  1.0000
  H   H2109     1.0  0.19351  0.14010  0.30664  1.0000
  H   H2110     1.0  0.14030  0.19471  0.30643  1.0000
  H   H2111     1.0  0.19394  0.19413  0.35940  1.0000
  H   H2112     1.0  0.13854  0.13964  0.36129  1.0000
  H   H2113     1.0  0.30664  0.30677  0.97315  1.0000
  H   H2114     1.0  0.30643  0.36137  0.02637  1.0000
  H   H2115     1.0  0.35940  0.36080  0.97273  1.0000
  H   H2116     1.0  0.36129  0.30630  0.02813  1.0000
  H   H2117     1.0  0.02657  0.63997  0.97315  1.0000
  H   H2118     1.0  0.97196  0.63976  0.02637  1.0000
  H   H2119     1.0  0.97254  0.69273  0.97273  1.0000
  H   H2120     1.0  0.02703  0.69463  0.02813  1.0000
  H   H2121     1.0  0.97331  0.30677  0.30649  1.0000
  H   H2122     1.0  0.97310  0.36137  0.35970  1.0000
  H   H2123     1.0  0.02607  0.36080  0.30606  1.0000
  H   H2124     1.0  0.02796  0.30630  0.36146  1.0000
  H   H2125     1.0  0.97331  0.52685  0.14010  1.0000
  H   H2126     1.0  0.97310  0.47363  0.19471  1.0000
  H   H2127     1.0  0.02606  0.52727  0.19413  1.0000
  H   H2128     1.0  0.02796  0.47188  0.13964  1.0000
  H   H2129     1.0  0.30677  0.47329  0.19351  1.0000
  H   H2130     1.0  0.36137  0.47308  0.14030  1.0000
  H   H2131     1.0  0.36080  0.52605  0.19393  1.0000
  H   H2132     1.0  0.30630  0.52794  0.13854  1.0000
  H   H2133     1.0  0.14010  0.63997  0.19351  1.0000
  H   H2134     1.0  0.19471  0.63976  0.14030  1.0000
  H   H2135     1.0  0.19413  0.69273  0.19394  1.0000
  H   H2136     1.0  0.13964  0.69463  0.13854  1.0000
  H   H2137     1.0  0.19337  0.47315  0.97343  1.0000
  H   H2138     1.0  0.19359  0.52637  0.02804  1.0000
  H   H2139     1.0  0.14061  0.47273  0.02746  1.0000
  H   H2140     1.0  0.13872  0.52813  0.97297  1.0000
  H   H2141     1.0  0.19337  0.52657  0.30649  1.0000
  H   H2142     1.0  0.19359  0.47196  0.35970  1.0000
  H   H2143     1.0  0.14061  0.47254  0.30607  1.0000
  H   H2144     1.0  0.13872  0.52703  0.36147  1.0000
  H   H2145     1.0  0.35990  0.69351  0.97331  1.0000
  H   H2146     1.0  0.30529  0.64030  0.97310  1.0000
  H   H2147     1.0  0.30587  0.69394  0.02607  1.0000
  H   H2148     1.0  0.36036  0.63854  0.02796  1.0000
  H   H2149     1.0  0.97331  0.64010  0.30649  1.0000
  H   H2150     1.0  0.97310  0.69471  0.35970  1.0000
  H   H2151     1.0  0.02607  0.69413  0.30606  1.0000
  H   H2152     1.0  0.02796  0.63964  0.36146  1.0000
  H   H2153     1.0  0.02657  0.80663  0.13982  1.0000
  H   H2154     1.0  0.97196  0.80641  0.19304  1.0000
  H   H2155     1.0  0.97254  0.85939  0.13940  1.0000
  H   H2156     1.0  0.02703  0.86128  0.19480  1.0000
  H   H2157     1.0  0.30649  0.80663  0.14010  1.0000
  H   H2158     1.0  0.35970  0.80641  0.19471  1.0000
  H   H2159     1.0  0.30607  0.85939  0.19413  1.0000
  H   H2160     1.0  0.36147  0.86128  0.13964  1.0000
  H   H2161     1.0  0.19351  0.86004  0.97343  1.0000
  H   H2162     1.0  0.14030  0.86025  0.02804  1.0000
  H   H2163     1.0  0.19393  0.80728  0.02746  1.0000
  H   H2164     1.0  0.13854  0.80539  0.97297  1.0000
  H   H2165     1.0  0.13982  0.86004  0.35990  1.0000
  H   H2166     1.0  0.19304  0.86025  0.30529  1.0000
  H   H2167     1.0  0.13940  0.80728  0.30587  1.0000
  H   H2168     1.0  0.19480  0.80539  0.36036  1.0000
  H   H2169     1.0  0.63997  0.97343  0.97315  1.0000
  H   H2170     1.0  0.63976  0.02804  0.02637  1.0000
  H   H2171     1.0  0.69273  0.02746  0.97273  1.0000
  H   H2172     1.0  0.69463  0.97297  0.02813  1.0000
  H   H2173     1.0  0.35990  0.02671  0.36018  1.0000
  H   H2174     1.0  0.30529  0.02692  0.30696  1.0000
  H   H2175     1.0  0.30587  0.97395  0.36060  1.0000
  H   H2176     1.0  0.36036  0.97205  0.30521  1.0000
  H   H2177     1.0  0.63982  0.14010  0.19337  1.0000
  H   H2178     1.0  0.69304  0.19471  0.19359  1.0000
  H   H2179     1.0  0.63940  0.19413  0.14061  1.0000
  H   H2180     1.0  0.69480  0.13964  0.13872  1.0000
  H   H2181     1.0  0.52657  0.97331  0.13982  1.0000
  H   H2182     1.0  0.47196  0.97310  0.19303  1.0000
  H   H2183     1.0  0.47254  0.02606  0.13939  1.0000
  H   H2184     1.0  0.52703  0.02796  0.19479  1.0000
  H   H2185     1.0  0.47329  0.30677  0.13982  1.0000
  H   H2186     1.0  0.47308  0.36137  0.19304  1.0000
  H   H2187     1.0  0.52605  0.36080  0.13940  1.0000
  H   H2188     1.0  0.52794  0.30630  0.19480  1.0000
  H   H2189     1.0  0.47330  0.14010  0.97315  1.0000
  H   H2190     1.0  0.47308  0.19471  0.02637  1.0000
  H   H2191     1.0  0.52605  0.19413  0.97274  1.0000
  H   H2192     1.0  0.52794  0.13964  0.02813  1.0000
  H   H2193     1.0  0.47330  0.14010  0.30649  1.0000
  H   H2194     1.0  0.47308  0.19471  0.35970  1.0000
  H   H2195     1.0  0.52605  0.19413  0.30607  1.0000
  H   H2196     1.0  0.52794  0.13964  0.36147  1.0000
  H   H2197     1.0  0.63997  0.35990  0.02685  1.0000
  H   H2198     1.0  0.63976  0.30529  0.97363  1.0000
  H   H2199     1.0  0.69273  0.30587  0.02727  1.0000
  H   H2200     1.0  0.69463  0.36036  0.97187  1.0000
  H   H2201     1.0  0.30649  0.30677  0.36004  1.0000
  H   H2202     1.0  0.35970  0.36137  0.36025  1.0000
  H   H2203     1.0  0.30606  0.36080  0.30728  1.0000
  H   H2204     1.0  0.36146  0.30630  0.30539  1.0000
  H   H2205     1.0  0.64010  0.47329  0.19351  1.0000
  H   H2206     1.0  0.69471  0.47308  0.14030  1.0000
  H   H2207     1.0  0.69413  0.52605  0.19393  1.0000
  H   H2208     1.0  0.63964  0.52794  0.13854  1.0000
  H   H2209     1.0  0.47315  0.63997  0.14010  1.0000
  H   H2210     1.0  0.52637  0.63976  0.19471  1.0000
  H   H2211     1.0  0.47273  0.69273  0.19413  1.0000
  H   H2212     1.0  0.52812  0.69463  0.13964  1.0000
  H   H2213     1.0  0.52657  0.52670  0.02685  1.0000
  H   H2214     1.0  0.47196  0.52692  0.97363  1.0000
  H   H2215     1.0  0.47254  0.47395  0.02726  1.0000
  H   H2216     1.0  0.52703  0.47206  0.97187  1.0000
  H   H2217     1.0  0.52657  0.52670  0.36018  1.0000
  H   H2218     1.0  0.47196  0.52692  0.30696  1.0000
  H   H2219     1.0  0.47254  0.47395  0.36060  1.0000
  H   H2220     1.0  0.52703  0.47206  0.30520  1.0000
  H   H2221     1.0  0.69323  0.69337  0.02685  1.0000
  H   H2222     1.0  0.63863  0.69358  0.97363  1.0000
  H   H2223     1.0  0.63920  0.64061  0.02727  1.0000
  H   H2224     1.0  0.69370  0.63872  0.97187  1.0000
  H   H2225     1.0  0.36004  0.69323  0.30649  1.0000
  H   H2226     1.0  0.36025  0.63863  0.35970  1.0000
  H   H2227     1.0  0.30728  0.63920  0.30606  1.0000
  H   H2228     1.0  0.30539  0.69370  0.36146  1.0000
  H   H2229     1.0  0.69351  0.80663  0.19323  1.0000
  H   H2230     1.0  0.64030  0.80641  0.13863  1.0000
  H   H2231     1.0  0.69393  0.85939  0.13920  1.0000
  H   H2232     1.0  0.63853  0.86128  0.19370  1.0000
  H   H2233     1.0  0.52685  0.80677  0.97331  1.0000
  H   H2234     1.0  0.47363  0.86137  0.97310  1.0000
  H   H2235     1.0  0.52727  0.86080  0.02606  1.0000
  H   H2236     1.0  0.47188  0.80630  0.02796  1.0000
  H   H2237     1.0  0.52671  0.80649  0.30677  1.0000
  H   H2238     1.0  0.52692  0.85970  0.36137  1.0000
  H   H2239     1.0  0.47395  0.80607  0.36080  1.0000
  H   H2240     1.0  0.47206  0.86146  0.30630  1.0000
  H   H2241     1.0  0.64010  0.97331  0.36018  1.0000
  H   H2242     1.0  0.69471  0.97310  0.30696  1.0000
  H   H2243     1.0  0.69413  0.02607  0.36060  1.0000
  H   H2244     1.0  0.63964  0.02796  0.30521  1.0000
  H   H2245     1.0  0.86004  0.02685  0.19323  1.0000
  H   H2246     1.0  0.86025  0.97363  0.13863  1.0000
  H   H2247     1.0  0.80728  0.02726  0.13920  1.0000
  H   H2248     1.0  0.80539  0.97187  0.19370  1.0000
  H   H2249     1.0  0.85990  0.36018  0.13996  1.0000
  H   H2250     1.0  0.80529  0.30696  0.13975  1.0000
  H   H2251     1.0  0.80587  0.36060  0.19272  1.0000
  H   H2252     1.0  0.86036  0.30520  0.19461  1.0000
  H   H2253     1.0  0.80649  0.14010  0.02671  1.0000
  H   H2254     1.0  0.85970  0.19471  0.02692  1.0000
  H   H2255     1.0  0.80606  0.19413  0.97395  1.0000
  H   H2256     1.0  0.86146  0.13964  0.97205  1.0000
  H   H2257     1.0  0.86004  0.14010  0.36018  1.0000
  H   H2258     1.0  0.86025  0.19471  0.30696  1.0000
  H   H2259     1.0  0.80728  0.19413  0.36060  1.0000
  H   H2260     1.0  0.80539  0.13964  0.30520  1.0000
  H   H2261     1.0  0.69351  0.35990  0.36004  1.0000
  H   H2262     1.0  0.64030  0.30529  0.36025  1.0000
  H   H2263     1.0  0.69394  0.30587  0.30728  1.0000
  H   H2264     1.0  0.63854  0.36036  0.30539  1.0000
  H   H2265     1.0  0.86004  0.69323  0.13982  1.0000
  H   H2266     1.0  0.86025  0.63863  0.19304  1.0000
  H   H2267     1.0  0.80728  0.63920  0.13940  1.0000
  H   H2268     1.0  0.80539  0.69370  0.19480  1.0000
  H   H2269     1.0  0.86018  0.52671  0.97343  1.0000
  H   H2270     1.0  0.80696  0.52692  0.02804  1.0000
  H   H2271     1.0  0.86060  0.47395  0.02746  1.0000
  H   H2272     1.0  0.80520  0.47206  0.97297  1.0000
  H   H2273     1.0  0.80677  0.47315  0.30664  1.0000
  H   H2274     1.0  0.86137  0.52637  0.30643  1.0000
  H   H2275     1.0  0.86080  0.47273  0.35940  1.0000
  H   H2276     1.0  0.80630  0.52812  0.36129  1.0000
  H   H2277     1.0  0.63997  0.64010  0.30649  1.0000
  H   H2278     1.0  0.63976  0.69471  0.35970  1.0000
  H   H2279     1.0  0.69273  0.69413  0.30606  1.0000
  H   H2280     1.0  0.69463  0.63964  0.36146  1.0000
  H   H2281     1.0  0.80663  0.80649  0.02657  1.0000
  H   H2282     1.0  0.80641  0.85970  0.97196  1.0000
  H   H2283     1.0  0.85939  0.80607  0.97254  1.0000
  H   H2284     1.0  0.86128  0.86146  0.02703  1.0000
  H   H2285     1.0  0.86018  0.80663  0.35990  1.0000
  H   H2286     1.0  0.80696  0.80641  0.30529  1.0000
  H   H2287     1.0  0.86060  0.85939  0.30587  1.0000
  H   H2288     1.0  0.80520  0.86128  0.36036  1.0000
  H   H2289     1.0  0.97343  0.97331  0.69351  1.0000
  H   H2290     1.0  0.02804  0.97310  0.64030  1.0000
  H   H2291     1.0  0.02746  0.02607  0.69394  1.0000
  H   H2292     1.0  0.97297  0.02796  0.63854  1.0000
  H   H2293     1.0  0.97331  0.19351  0.47343  1.0000
  H   H2294     1.0  0.97310  0.14030  0.52804  1.0000
  H   H2295     1.0  0.02606  0.19394  0.52746  1.0000
  H   H2296     1.0  0.02796  0.13854  0.47297  1.0000
  H   H2297     1.0  0.36018  0.14010  0.47330  1.0000
  H   H2298     1.0  0.30696  0.19471  0.47308  1.0000
  H   H2299     1.0  0.36060  0.19413  0.52605  1.0000
  H   H2300     1.0  0.30520  0.13964  0.52794  1.0000
  H   H2301     1.0  0.13982  0.97343  0.52671  1.0000
  H   H2302     1.0  0.19304  0.02804  0.52692  1.0000
  H   H2303     1.0  0.13940  0.02746  0.47395  1.0000
  H   H2304     1.0  0.19480  0.97297  0.47206  1.0000
  H   H2305     1.0  0.13996  0.30677  0.47315  1.0000
  H   H2306     1.0  0.13975  0.36137  0.52637  1.0000
  H   H2307     1.0  0.19272  0.36080  0.47273  1.0000
  H   H2308     1.0  0.19461  0.30630  0.52813  1.0000
  H   H2309     1.0  0.14010  0.19337  0.63982  1.0000
  H   H2310     1.0  0.19471  0.19359  0.69304  1.0000
  H   H2311     1.0  0.19413  0.14061  0.63940  1.0000
  H   H2312     1.0  0.13964  0.13872  0.69480  1.0000
  H   H2313     1.0  0.97315  0.30677  0.69337  1.0000
  H   H2314     1.0  0.02637  0.36137  0.69358  1.0000
  H   H2315     1.0  0.97273  0.36080  0.64061  1.0000
  H   H2316     1.0  0.02813  0.30630  0.63872  1.0000
  H   H2317     1.0  0.02657  0.52685  0.47329  1.0000
  H   H2318     1.0  0.97196  0.47363  0.47308  1.0000
  H   H2319     1.0  0.97254  0.52727  0.52605  1.0000
  H   H2320     1.0  0.02703  0.47187  0.52794  1.0000
  H   H2321     1.0  0.35990  0.52671  0.52685  1.0000
  H   H2322     1.0  0.30529  0.52692  0.47363  1.0000
  H   H2323     1.0  0.30587  0.47395  0.52727  1.0000
  H   H2324     1.0  0.36036  0.47206  0.47187  1.0000
  H   H2325     1.0  0.14010  0.69351  0.52670  1.0000
  H   H2326     1.0  0.19471  0.64030  0.52692  1.0000
  H   H2327     1.0  0.19413  0.69393  0.47395  1.0000
  H   H2328     1.0  0.13964  0.63853  0.47206  1.0000
  H   H2329     1.0  0.19337  0.52685  0.69323  1.0000
  H   H2330     1.0  0.19359  0.47363  0.63863  1.0000
  H   H2331     1.0  0.14061  0.52727  0.63920  1.0000
  H   H2332     1.0  0.13872  0.47187  0.69370  1.0000
  H   H2333     1.0  0.97331  0.69323  0.69351  1.0000
  H   H2334     1.0  0.97310  0.63863  0.64030  1.0000
  H   H2335     1.0  0.02607  0.63920  0.69394  1.0000
  H   H2336     1.0  0.02796  0.69370  0.63854  1.0000
  H   H2337     1.0  0.97315  0.86004  0.52657  1.0000
  H   H2338     1.0  0.02637  0.86025  0.47196  1.0000
  H   H2339     1.0  0.97274  0.80728  0.47254  1.0000
  H   H2340     1.0  0.02813  0.80539  0.52703  1.0000
  H   H2341     1.0  0.36018  0.85990  0.52670  1.0000
  H   H2342     1.0  0.30696  0.80529  0.52692  1.0000
  H   H2343     1.0  0.36060  0.80587  0.47395  1.0000
  H   H2344     1.0  0.30520  0.86036  0.47206  1.0000
  H   H2345     1.0  0.19323  0.80649  0.69337  1.0000
  H   H2346     1.0  0.13863  0.85970  0.69358  1.0000
  H   H2347     1.0  0.13920  0.80606  0.64062  1.0000
  H   H2348     1.0  0.19370  0.86146  0.63872  1.0000
  H   H2349     1.0  0.35990  0.97315  0.69337  1.0000
  H   H2350     1.0  0.30529  0.02637  0.69358  1.0000
  H   H2351     1.0  0.30587  0.97273  0.64061  1.0000
  H   H2352     1.0  0.36036  0.02813  0.63872  1.0000
  H   H2353     1.0  0.64010  0.13982  0.47329  1.0000
  H   H2354     1.0  0.69471  0.19304  0.47308  1.0000
  H   H2355     1.0  0.69413  0.13940  0.52605  1.0000
  H   H2356     1.0  0.63964  0.19480  0.52794  1.0000
  H   H2357     1.0  0.47329  0.02657  0.52685  1.0000
  H   H2358     1.0  0.47308  0.97196  0.47363  1.0000
  H   H2359     1.0  0.52605  0.97254  0.52727  1.0000
  H   H2360     1.0  0.52794  0.02703  0.47187  1.0000
  H   H2361     1.0  0.47315  0.35990  0.47329  1.0000
  H   H2362     1.0  0.52637  0.30529  0.47308  1.0000
  H   H2363     1.0  0.47273  0.30587  0.52605  1.0000
  H   H2364     1.0  0.52813  0.36036  0.52794  1.0000
  H   H2365     1.0  0.47330  0.14010  0.63982  1.0000
  H   H2366     1.0  0.47308  0.19471  0.69304  1.0000
  H   H2367     1.0  0.52605  0.19413  0.63940  1.0000
  H   H2368     1.0  0.52794  0.13964  0.69480  1.0000
  H   H2369     1.0  0.36018  0.30664  0.69323  1.0000
  H   H2370     1.0  0.30696  0.30643  0.63863  1.0000
  H   H2371     1.0  0.36060  0.35940  0.63920  1.0000
  H   H2372     1.0  0.30521  0.36129  0.69370  1.0000
  H   H2373     1.0  0.69351  0.52657  0.52670  1.0000
  H   H2374     1.0  0.64030  0.47196  0.52692  1.0000
  H   H2375     1.0  0.69393  0.47254  0.47395  1.0000
  H   H2376     1.0  0.63853  0.52703  0.47206  1.0000
  H   H2377     1.0  0.52657  0.63997  0.47315  1.0000
  H   H2378     1.0  0.47196  0.63976  0.52637  1.0000
  H   H2379     1.0  0.47254  0.69273  0.47273  1.0000
  H   H2380     1.0  0.52703  0.69463  0.52812  1.0000
  H   H2381     1.0  0.52670  0.47343  0.69351  1.0000
  H   H2382     1.0  0.52692  0.52804  0.64030  1.0000
  H   H2383     1.0  0.47395  0.52746  0.69393  1.0000
  H   H2384     1.0  0.47206  0.47297  0.63853  1.0000
  H   H2385     1.0  0.30677  0.63982  0.63997  1.0000
  H   H2386     1.0  0.36137  0.69304  0.63976  1.0000
  H   H2387     1.0  0.36080  0.63940  0.69273  1.0000
  H   H2388     1.0  0.30630  0.69479  0.69463  1.0000
  H   H2389     1.0  0.63982  0.86004  0.52657  1.0000
  H   H2390     1.0  0.69304  0.86025  0.47196  1.0000
  H   H2391     1.0  0.63940  0.80728  0.47254  1.0000
  H   H2392     1.0  0.69480  0.80539  0.52703  1.0000
  H   H2393     1.0  0.47343  0.86018  0.69337  1.0000
  H   H2394     1.0  0.52804  0.80697  0.69358  1.0000
  H   H2395     1.0  0.52746  0.86061  0.64062  1.0000
  H   H2396     1.0  0.47297  0.80521  0.63872  1.0000
  H   H2397     1.0  0.63982  0.97343  0.69337  1.0000
  H   H2398     1.0  0.69304  0.02804  0.69358  1.0000
  H   H2399     1.0  0.63940  0.02746  0.64061  1.0000
  H   H2400     1.0  0.69479  0.97297  0.63872  1.0000
  H   H2401     1.0  0.86004  0.02657  0.47315  1.0000
  H   H2402     1.0  0.86025  0.97196  0.52637  1.0000
  H   H2403     1.0  0.80728  0.97254  0.47273  1.0000
  H   H2404     1.0  0.80539  0.02703  0.52813  1.0000
  H   H2405     1.0  0.85990  0.36004  0.52685  1.0000
  H   H2406     1.0  0.80529  0.36025  0.47363  1.0000
  H   H2407     1.0  0.80587  0.30728  0.52727  1.0000
  H   H2408     1.0  0.86036  0.30539  0.47188  1.0000
  H   H2409     1.0  0.80677  0.13982  0.63997  1.0000
  H   H2410     1.0  0.86137  0.19303  0.63976  1.0000
  H   H2411     1.0  0.86080  0.13939  0.69273  1.0000
  H   H2412     1.0  0.80630  0.19479  0.69463  1.0000
  H   H2413     1.0  0.63982  0.30664  0.64010  1.0000
  H   H2414     1.0  0.69304  0.30643  0.69471  1.0000
  H   H2415     1.0  0.63940  0.35940  0.69413  1.0000
  H   H2416     1.0  0.69479  0.36129  0.63964  1.0000
  H   H2417     1.0  0.86004  0.64010  0.52685  1.0000
  H   H2418     1.0  0.86025  0.69471  0.47363  1.0000
  H   H2419     1.0  0.80728  0.69413  0.52727  1.0000
  H   H2420     1.0  0.80539  0.63964  0.47187  1.0000
  H   H2421     1.0  0.80677  0.47315  0.63997  1.0000
  H   H2422     1.0  0.86137  0.52637  0.63976  1.0000
  H   H2423     1.0  0.86080  0.47273  0.69273  1.0000
  H   H2424     1.0  0.80630  0.52812  0.69463  1.0000
  H   H2425     1.0  0.69337  0.69351  0.69323  1.0000
  H   H2426     1.0  0.69358  0.64030  0.63863  1.0000
  H   H2427     1.0  0.64061  0.69394  0.63920  1.0000
  H   H2428     1.0  0.63872  0.63854  0.69370  1.0000
  H   H2429     1.0  0.80677  0.80663  0.69351  1.0000
  H   H2430     1.0  0.86137  0.80641  0.64030  1.0000
  H   H2431     1.0  0.86080  0.85939  0.69393  1.0000
  H   H2432     1.0  0.80630  0.86128  0.63853  1.0000
  H   H2433     1.0  0.02671  0.19351  0.85990  1.0000
  H   H2434     1.0  0.02692  0.14030  0.80529  1.0000
  H   H2435     1.0  0.97395  0.19394  0.80587  1.0000
  H   H2436     1.0  0.97205  0.13854  0.86036  1.0000
  H   H2437     1.0  0.30664  0.13982  0.85990  1.0000
  H   H2438     1.0  0.30643  0.19303  0.80529  1.0000
  H   H2439     1.0  0.35940  0.13939  0.80587  1.0000
  H   H2440     1.0  0.36129  0.19479  0.86036  1.0000
  H   H2441     1.0  0.13982  0.02671  0.85990  1.0000
  H   H2442     1.0  0.19303  0.02692  0.80529  1.0000
  H   H2443     1.0  0.13939  0.97395  0.80587  1.0000
  H   H2444     1.0  0.19479  0.97205  0.86036  1.0000
  H   H2445     1.0  0.13996  0.35990  0.86018  1.0000
  H   H2446     1.0  0.13975  0.30529  0.80696  1.0000
  H   H2447     1.0  0.19272  0.30587  0.86060  1.0000
  H   H2448     1.0  0.19461  0.36036  0.80520  1.0000
  H   H2449     1.0  0.97343  0.52671  0.80649  1.0000
  H   H2450     1.0  0.02804  0.52692  0.85970  1.0000
  H   H2451     1.0  0.02746  0.47395  0.80607  1.0000
  H   H2452     1.0  0.97297  0.47206  0.86146  1.0000
  H   H2453     1.0  0.36018  0.47330  0.85990  1.0000
  H   H2454     1.0  0.30696  0.47308  0.80529  1.0000
  H   H2455     1.0  0.36060  0.52605  0.80587  1.0000
  H   H2456     1.0  0.30520  0.52794  0.86036  1.0000
  H   H2457     1.0  0.19323  0.69351  0.80663  1.0000
  H   H2458     1.0  0.13863  0.64030  0.80641  1.0000
  H   H2459     1.0  0.13920  0.69393  0.85939  1.0000
  H   H2460     1.0  0.19370  0.63853  0.86128  1.0000
  H   H2461     1.0  0.02671  0.80677  0.86018  1.0000
  H   H2462     1.0  0.02692  0.86137  0.80697  1.0000
  H   H2463     1.0  0.97395  0.86080  0.86061  1.0000
  H   H2464     1.0  0.97205  0.80630  0.80521  1.0000
  H   H2465     1.0  0.36018  0.80663  0.85990  1.0000
  H   H2466     1.0  0.30696  0.80641  0.80529  1.0000
  H   H2467     1.0  0.36060  0.85939  0.80587  1.0000
  H   H2468     1.0  0.30520  0.86128  0.86036  1.0000
  H   H2469     1.0  0.64010  0.19337  0.80649  1.0000
  H   H2470     1.0  0.69471  0.19359  0.85970  1.0000
  H   H2471     1.0  0.69413  0.14061  0.80607  1.0000
  H   H2472     1.0  0.63964  0.13872  0.86146  1.0000
  H   H2473     1.0  0.47329  0.02657  0.86018  1.0000
  H   H2474     1.0  0.47308  0.97196  0.80696  1.0000
  H   H2475     1.0  0.52605  0.97254  0.86060  1.0000
  H   H2476     1.0  0.52794  0.02703  0.80520  1.0000
  H   H2477     1.0  0.47343  0.36018  0.86004  1.0000
  H   H2478     1.0  0.52804  0.30696  0.86025  1.0000
  H   H2479     1.0  0.52746  0.36060  0.80728  1.0000
  H   H2480     1.0  0.47297  0.30520  0.80539  1.0000
  H   H2481     1.0  0.69351  0.52670  0.80677  1.0000
  H   H2482     1.0  0.64030  0.52692  0.86137  1.0000
  H   H2483     1.0  0.69393  0.47395  0.86080  1.0000
  H   H2484     1.0  0.63853  0.47206  0.80630  1.0000
  H   H2485     1.0  0.52685  0.63997  0.85990  1.0000
  H   H2486     1.0  0.47363  0.63976  0.80529  1.0000
  H   H2487     1.0  0.52727  0.69273  0.80587  1.0000
  H   H2488     1.0  0.47188  0.69463  0.86036  1.0000
  H   H2489     1.0  0.69337  0.85990  0.80649  1.0000
  H   H2490     1.0  0.69358  0.80529  0.85970  1.0000
  H   H2491     1.0  0.64062  0.80587  0.80606  1.0000
  H   H2492     1.0  0.63872  0.86036  0.86146  1.0000
  H   H2493     1.0  0.86018  0.02671  0.80677  1.0000
  H   H2494     1.0  0.80697  0.02692  0.86137  1.0000
  H   H2495     1.0  0.86061  0.97395  0.86080  1.0000
  H   H2496     1.0  0.80521  0.97205  0.80630  1.0000
  H   H2497     1.0  0.86018  0.30677  0.80663  1.0000
  H   H2498     1.0  0.80696  0.36137  0.80641  1.0000
  H   H2499     1.0  0.86060  0.36080  0.85939  1.0000
  H   H2500     1.0  0.80520  0.30630  0.86128  1.0000
  H   H2501     1.0  0.80677  0.69351  0.86004  1.0000
  H   H2502     1.0  0.86137  0.64030  0.86025  1.0000
  H   H2503     1.0  0.86080  0.69393  0.80728  1.0000
  H   H2504     1.0  0.80630  0.63853  0.80539  1.0000
  H   H2505     1.0  1.00000  0.06383  0.60284  1.0000
  H   H2506     1.0  0.00000  0.10283  0.56384  1.0000
  H   H2507     1.0  0.76950  0.66667  0.89717  1.0000
  H   H2508     1.0  0.73050  0.66667  0.93618  1.0000
  H   H2509     1.0  0.33333  0.89717  0.89717  1.0000
  H   H2510     1.0  0.33333  0.93617  0.93618  1.0000
  H   H2511     1.0  0.33333  0.89717  0.23051  1.0000
  H   H2512     1.0  0.33333  0.93617  0.26951  1.0000
  H   H2513     1.0  0.93617  0.33333  0.73050  1.0000
  H   H2514     1.0  0.89717  0.33333  0.76950  1.0000
  H   H2515     1.0  0.60284  0.93617  0.33333  1.0000
  H   H2516     1.0  0.56384  0.89717  0.33333  1.0000
  H   H2517     1.0  0.26951  0.00000  0.60283  1.0000
  H   H2518     1.0  0.23050  0.00000  0.56383  1.0000
  H   H2519     1.0  0.43617  0.83333  0.06383  1.0000
  H   H2520     1.0  0.39717  0.83333  0.10283  1.0000
  H   H2521     1.0  0.66667  0.56383  0.10283  1.0000
  H   H2522     1.0  0.66667  0.60283  0.06383  1.0000
  H   H2523     1.0  0.50000  0.89717  0.26950  1.0000
  H   H2524     1.0  0.50000  0.93618  0.23050  1.0000
  H   H2525     1.0  0.10283  0.83333  0.26950  1.0000
  H   H2526     1.0  0.06383  0.83333  0.23050  1.0000
  H   H2527     1.0  0.66667  0.76950  0.10284  1.0000
  H   H2528     1.0  0.66667  0.73050  0.06383  1.0000
  H   H2529     1.0  0.93617  0.23051  0.16667  1.0000
  H   H2530     1.0  0.89717  0.26951  0.16667  1.0000
  H   H2531     1.0  0.66667  0.43617  0.89716  1.0000
  H   H2532     1.0  0.66667  0.39717  0.93617  1.0000
  H   H2533     1.0  0.50000  0.76950  0.06383  1.0000
  H   H2534     1.0  0.50000  0.73050  0.10283  1.0000
  H   H2535     1.0  0.83333  0.10283  0.39716  1.0000
  H   H2536     1.0  0.83333  0.06383  0.43617  1.0000
  H   H2537     1.0  0.50000  0.76950  0.73050  1.0000
  H   H2538     1.0  0.50000  0.73050  0.76950  1.0000
  H   H2539     1.0  0.89717  1.00000  0.10283  1.0000
  H   H2540     1.0  0.93618  0.00000  0.06383  1.0000
  H   H2541     1.0  0.73050  0.50000  0.10284  1.0000
  H   H2542     1.0  0.76950  0.50000  0.06383  1.0000
  H   H2543     1.0  0.16667  0.73050  0.10284  1.0000
  H   H2544     1.0  0.16667  0.76950  0.06383  1.0000
  H   H2545     1.0  0.66667  0.26950  0.06383  1.0000
  H   H2546     1.0  0.66667  0.23050  0.10283  1.0000
  H   H2547     1.0  0.56384  0.33333  0.43617  1.0000
  H   H2548     1.0  0.60284  0.33333  0.39717  1.0000
  H   H2549     1.0  0.73050  0.66667  0.06383  1.0000
  H   H2550     1.0  0.76950  0.66667  0.10283  1.0000
  H   H2551     1.0  0.23051  0.50000  0.93617  1.0000
  H   H2552     1.0  0.26951  0.50000  0.89717  1.0000
  H   H2553     1.0  0.89717  0.10283  0.66667  1.0000
  H   H2554     1.0  0.93618  0.06383  0.66667  1.0000
  H   H2555     1.0  0.89717  0.50000  0.26950  1.0000
  H   H2556     1.0  0.93618  0.50000  0.23050  1.0000
  H   H2557     1.0  0.66667  0.60284  0.39717  1.0000
  H   H2558     1.0  0.66667  0.56384  0.43617  1.0000
  H   H2559     1.0  0.89717  0.33333  0.89717  1.0000
  H   H2560     1.0  0.93617  0.33333  0.93618  1.0000
  H   H2561     1.0  0.73050  0.89716  0.16667  1.0000
  H   H2562     1.0  0.76950  0.93617  0.16667  1.0000
  H   H2563     1.0  0.83333  0.76950  0.93617  1.0000
  H   H2564     1.0  0.83333  0.73050  0.89717  1.0000
  H   H2565     1.0  0.83333  0.60284  0.89717  1.0000
  H   H2566     1.0  0.83333  0.56384  0.93617  1.0000
  H   H2567     1.0  0.56383  0.66667  0.76950  1.0000
  H   H2568     1.0  0.60283  0.66667  0.73050  1.0000
  H   H2569     1.0  0.60284  0.43617  0.50000  1.0000
  H   H2570     1.0  0.56384  0.39717  0.50000  1.0000
  H   H2571     1.0  0.83333  0.23050  0.73050  1.0000
  H   H2572     1.0  0.83333  0.26950  0.76950  1.0000
  H   H2573     1.0  0.73050  0.83333  0.43617  1.0000
  H   H2574     1.0  0.76950  0.83333  0.39717  1.0000
  H   H2575     1.0  0.66667  0.10283  0.89716  1.0000
  H   H2576     1.0  0.66667  0.06383  0.93617  1.0000
  H   H2577     1.0  0.39717  0.50000  0.23051  1.0000
  H   H2578     1.0  0.43617  0.50000  0.26951  1.0000
  H   H2579     1.0  0.76950  0.06383  0.16667  1.0000
  H   H2580     1.0  0.73050  0.10283  0.16667  1.0000
  H   H2581     1.0  0.39717  0.10284  0.83333  1.0000
  H   H2582     1.0  0.43617  0.06383  0.83333  1.0000
  H   H2583     1.0  0.43617  0.83333  0.73050  1.0000
  H   H2584     1.0  0.39717  0.83333  0.76950  1.0000
  H   H2585     1.0  0.43617  0.89717  0.00000  1.0000
  H   H2586     1.0  0.39717  0.93618  0.00000  1.0000
  H   H2587     1.0  0.56384  0.66667  0.23050  1.0000
  H   H2588     1.0  0.60284  0.66667  0.26950  1.0000
  H   H2589     1.0  0.10284  0.39717  0.16667  1.0000
  H   H2590     1.0  0.06383  0.43617  0.16667  1.0000
  H   H2591     1.0  0.43617  0.16667  0.26950  1.0000
  H   H2592     1.0  0.39717  0.16667  0.23050  1.0000
  H   H2593     1.0  0.10283  0.23051  0.00000  1.0000
  H   H2594     1.0  0.06383  0.26951  0.00000  1.0000
  H   H2595     1.0  0.06383  0.50000  0.56383  1.0000
  H   H2596     1.0  0.10283  0.50000  0.60283  1.0000
  H   H2597     1.0  0.83333  0.93617  0.23051  1.0000
  H   H2598     1.0  0.83333  0.89717  0.26951  1.0000
  H   H2599     1.0  0.06383  0.39716  0.33333  1.0000
  H   H2600     1.0  0.10283  0.43617  0.33333  1.0000
  H   H2601     1.0  0.93617  0.93617  0.66667  1.0000
  H   H2602     1.0  0.89717  0.89717  0.66667  1.0000
  H   H2603     1.0  0.60284  0.16667  0.76950  1.0000
  H   H2604     1.0  0.56383  0.16667  0.73050  1.0000
  H   H2605     1.0  0.39717  0.60284  0.00000  1.0000
  H   H2606     1.0  0.43617  0.56384  0.00000  1.0000
  H   H2607     1.0  0.26951  0.43617  0.50000  1.0000
  H   H2608     1.0  0.23050  0.39717  0.50000  1.0000
  H   H2609     1.0  0.60284  0.93617  0.66667  1.0000
  H   H2610     1.0  0.56384  0.89717  0.66667  1.0000
  H   H2611     1.0  0.50000  0.10283  0.93617  1.0000
  H   H2612     1.0  0.50000  0.06383  0.89717  1.0000
  H   H2613     1.0  0.76950  0.83333  0.26951  1.0000
  H   H2614     1.0  0.73050  0.83333  0.23050  1.0000
  H   H2615     1.0  0.56383  0.93617  0.83333  1.0000
  H   H2616     1.0  0.60283  0.89717  0.83333  1.0000
  H   H2617     1.0  0.83333  0.39717  0.56384  1.0000
  H   H2618     1.0  0.83333  0.43617  0.60284  1.0000
  H   H2619     1.0  0.43617  0.10284  0.33333  1.0000
  H   H2620     1.0  0.39717  0.06383  0.33333  1.0000
  H   H2621     1.0  0.50000  0.23051  0.39717  1.0000
  H   H2622     1.0  0.50000  0.26951  0.43617  1.0000
  H   H2623     1.0  0.89717  0.83333  0.93617  1.0000
  H   H2624     1.0  0.93617  0.83333  0.89717  1.0000
  H   H2625     1.0  0.83333  0.26951  0.23050  1.0000
  H   H2626     1.0  0.83333  0.23050  0.26950  1.0000
  H   H2627     1.0  1.00000  0.73050  0.93617  1.0000
  H   H2628     1.0  0.00000  0.76950  0.89717  1.0000
  H   H2629     1.0  0.39717  0.43617  0.16667  1.0000
  H   H2630     1.0  0.43617  0.39717  0.16667  1.0000
  H   H2631     1.0  0.10283  0.16667  0.60284  1.0000
  H   H2632     1.0  0.06383  0.16667  0.56383  1.0000
  H   H2633     1.0  0.76950  0.23051  0.66667  1.0000
  H   H2634     1.0  0.73050  0.26951  0.66667  1.0000
  H   H2635     1.0  0.10283  0.73050  0.16667  1.0000
  H   H2636     1.0  0.06383  0.76950  0.16667  1.0000
  H   H2637     1.0  0.10283  0.06383  0.16667  1.0000
  H   H2638     1.0  0.06383  0.10283  0.16667  1.0000
  H   H2639     1.0  0.76950  0.39716  0.50000  1.0000
  H   H2640     1.0  0.73050  0.43617  0.50000  1.0000
  H   H2641     1.0  0.50000  0.89717  0.93617  1.0000
  H   H2642     1.0  0.50000  0.93618  0.89717  1.0000
  H   H2643     1.0  0.33333  0.26951  0.39717  1.0000
  H   H2644     1.0  0.33333  0.23050  0.43617  1.0000
  H   H2645     1.0  0.73050  0.23050  0.50000  1.0000
  H   H2646     1.0  0.76950  0.26950  0.50000  1.0000
  H   H2647     1.0  0.43617  0.76950  0.33333  1.0000
  H   H2648     1.0  0.39717  0.73050  0.33333  1.0000
  H   H2649     1.0  0.23051  0.00000  0.76950  1.0000
  H   H2650     1.0  0.26951  1.00000  0.73050  1.0000
  H   H2651     1.0  0.60284  0.16667  0.43617  1.0000
  H   H2652     1.0  0.56383  0.16667  0.39717  1.0000
  H   H2653     1.0  0.06383  0.56384  0.50000  1.0000
  H   H2654     1.0  0.10283  0.60284  0.50000  1.0000
  H   H2655     1.0  0.26950  0.39717  0.00000  1.0000
  H   H2656     1.0  0.23050  0.43617  0.00000  1.0000
  H   H2657     1.0  0.76950  0.10284  0.33333  1.0000
  H   H2658     1.0  0.73050  0.06383  0.33333  1.0000
  H   H2659     1.0  0.39717  0.89716  0.83333  1.0000
  H   H2660     1.0  0.43617  0.93617  0.83333  1.0000
  H   H2661     1.0  0.06383  0.16667  0.10283  1.0000
  H   H2662     1.0  0.10283  0.16667  0.06383  1.0000
  H   H2663     1.0  0.10283  0.83333  0.39716  1.0000
  H   H2664     1.0  0.06383  0.83333  0.43617  1.0000
  H   H2665     1.0  0.89716  0.16667  0.06383  1.0000
  H   H2666     1.0  0.93617  0.16667  0.10283  1.0000
  H   H2667     1.0  0.73050  0.10284  0.83333  1.0000
  H   H2668     1.0  0.76950  0.06383  0.83333  1.0000
  H   H2669     1.0  0.50000  0.39716  0.10283  1.0000
  H   H2670     1.0  0.50000  0.43617  0.06383  1.0000
  H   H2671     1.0  0.83333  0.93617  0.43617  1.0000
  H   H2672     1.0  0.83333  0.89717  0.39717  1.0000
  H   H2673     1.0  0.66667  0.60284  0.73050  1.0000
  H   H2674     1.0  0.66667  0.56384  0.76950  1.0000
  H   H2675     1.0  0.73050  0.73050  0.33333  1.0000
  H   H2676     1.0  0.76950  0.76950  0.33333  1.0000
  H   H2677     1.0  0.56384  0.66667  0.43617  1.0000
  H   H2678     1.0  0.60284  0.66667  0.39717  1.0000
  H   H2679     1.0  0.56383  0.00000  0.10283  1.0000
  H   H2680     1.0  0.60283  0.00000  0.06383  1.0000
  H   H2681     1.0  0.39717  0.26951  0.33333  1.0000
  H   H2682     1.0  0.43617  0.23050  0.33333  1.0000
  H   H2683     1.0  0.00000  0.10283  0.76950  1.0000
  H   H2684     1.0  0.00000  0.06383  0.73050  1.0000
  H   H2685     1.0  0.73050  0.76950  0.83333  1.0000
  H   H2686     1.0  0.76950  0.73050  0.83333  1.0000
  H   H2687     1.0  0.56383  0.39717  0.83333  1.0000
  H   H2688     1.0  0.60283  0.43617  0.83333  1.0000
  H   H2689     1.0  0.16667  0.43617  0.06383  1.0000
  H   H2690     1.0  0.16667  0.39717  0.10283  1.0000
  H   H2691     1.0  0.23051  0.66667  0.43617  1.0000
  H   H2692     1.0  0.26951  0.66667  0.39717  1.0000
  H   H2693     1.0  0.43617  0.60284  0.50000  1.0000
  H   H2694     1.0  0.39717  0.56383  0.50000  1.0000
  H   H2695     1.0  0.43617  0.83333  0.39717  1.0000
  H   H2696     1.0  0.39717  0.83333  0.43617  1.0000
  H   H2697     1.0  0.26951  0.33333  0.06383  1.0000
  H   H2698     1.0  0.23050  0.33333  0.10283  1.0000
  H   H2699     1.0  0.73050  0.50000  0.23051  1.0000
  H   H2700     1.0  0.76950  0.50000  0.26951  1.0000
  H   H2701     1.0  0.10284  0.43617  0.00000  1.0000
  H   H2702     1.0  0.06383  0.39717  0.00000  1.0000
  H   H2703     1.0  0.00000  0.10283  0.89717  1.0000
  H   H2704     1.0  0.00000  0.06383  0.93618  1.0000
  H   H2705     1.0  0.89717  0.66667  0.10283  1.0000
  H   H2706     1.0  0.93618  0.66667  0.06383  1.0000
  H   H2707     1.0  0.26951  0.10283  0.50000  1.0000
  H   H2708     1.0  0.23050  0.06383  0.50000  1.0000
  H   H2709     1.0  0.39717  0.33333  0.26950  1.0000
  H   H2710     1.0  0.43617  0.33333  0.23050  1.0000
  H   H2711     1.0  0.73050  0.83333  0.89716  1.0000
  H   H2712     1.0  0.76950  0.83333  0.93617  1.0000
  H   H2713     1.0  0.10283  0.50000  0.73050  1.0000
  H   H2714     1.0  0.06383  0.50000  0.76950  1.0000
  H   H2715     1.0  0.23051  0.93617  0.16667  1.0000
  H   H2716     1.0  0.26951  0.89717  0.16667  1.0000
  H   H2717     1.0  0.23050  0.66667  0.10283  1.0000
  H   H2718     1.0  0.26950  0.66667  0.06383  1.0000
  H   H2719     1.0  0.56384  0.73050  0.16667  1.0000
  H   H2720     1.0  0.60284  0.76950  0.16667  1.0000
  H   H2721     1.0  0.60284  0.16667  0.89717  1.0000
  H   H2722     1.0  0.56384  0.16667  0.93617  1.0000
  H   H2723     1.0  0.26950  0.76950  0.16667  1.0000
  H   H2724     1.0  0.23050  0.73050  0.16667  1.0000
  H   H2725     1.0  0.16667  0.76950  0.39716  1.0000
  H   H2726     1.0  0.16667  0.73050  0.43617  1.0000
  H   H2727     1.0  0.60284  0.66667  0.60283  1.0000
  H   H2728     1.0  0.56384  0.66667  0.56383  1.0000
  H   H2729     1.0  0.00000  0.56384  0.76950  1.0000
  H   H2730     1.0  0.00000  0.60284  0.73050  1.0000
  H   H2731     1.0  0.83333  0.60283  0.56384  1.0000
  H   H2732     1.0  0.83333  0.56383  0.60284  1.0000
  H   H2733     1.0  0.56384  0.16667  0.06383  1.0000
  H   H2734     1.0  0.60284  0.16667  0.10283  1.0000
  H   H2735     1.0  0.39717  0.23051  0.50000  1.0000
  H   H2736     1.0  0.43617  0.26951  0.50000  1.0000
  H   H2737     1.0  0.16667  0.73050  0.23051  1.0000
  H   H2738     1.0  0.16667  0.76950  0.26951  1.0000
  H   H2739     1.0  0.60284  0.10283  0.16667  1.0000
  H   H2740     1.0  0.56383  0.06383  0.16667  1.0000
  H   H2741     1.0  0.83333  0.39717  0.89716  1.0000
  H   H2742     1.0  0.83333  0.43617  0.93617  1.0000
  H   H2743     1.0  0.06383  0.00000  0.26951  1.0000
  H   H2744     1.0  0.10283  0.00000  0.23050  1.0000
  H   H2745     1.0  0.93617  0.16667  0.23051  1.0000
  H   H2746     1.0  0.89717  0.16667  0.26951  1.0000
  H   H2747     1.0  0.73050  1.00000  0.93617  1.0000
  H   H2748     1.0  0.76950  0.00000  0.89717  1.0000
  H   H2749     1.0  0.33333  0.06383  0.93617  1.0000
  H   H2750     1.0  0.33333  0.10283  0.89717  1.0000
  H   H2751     1.0  0.33333  0.60284  0.06383  1.0000
  H   H2752     1.0  0.33333  0.56384  0.10283  1.0000
  H   H2753     1.0  0.06383  0.83333  0.76950  1.0000
  H   H2754     1.0  0.10283  0.83333  0.73050  1.0000
  H   H2755     1.0  0.66667  0.26950  0.73050  1.0000
  H   H2756     1.0  0.66667  0.23050  0.76950  1.0000
  H   H2757     1.0  0.73050  0.66667  0.60284  1.0000
  H   H2758     1.0  0.76950  0.66667  0.56384  1.0000
  H   H2759     1.0  0.23050  0.00000  0.23051  1.0000
  H   H2760     1.0  0.26950  0.00000  0.26951  1.0000
  H   H2761     1.0  0.93617  0.50000  0.76950  1.0000
  H   H2762     1.0  0.89717  0.50000  0.73050  1.0000
  H   H2763     1.0  0.43617  0.00000  0.89716  1.0000
  H   H2764     1.0  0.39717  0.00000  0.93617  1.0000
